/*---------------------------------------------------------------------------*\
| =========                 |                                                 |
| \\      /  F ield         | OpenFOAM: The Open Source CFD Toolbox           |
|  \\    /   O peration     | Version:  2112                                  |
|   \\  /    A nd           | Website:  www.openfoam.com                      |
|    \\/     M anipulation  |                                                 |
\*---------------------------------------------------------------------------*/
Build  : _6e1fca0e-20220610 OPENFOAM=2112 patch=220610 version=2112
Arch   : "LSB;label=32;scalar=64"
Exec   : leeFoam -parallel
Date   : Apr 07 2023
Time   : 21:39:00
Host   : LAPTOP-BPDVFV63
PID    : 724
I/O    : uncollated
Case   : /mnt/c/Users/samsa/GitHub/leeFoam/Tutorials/2D_Pulse
nProcs : 4
Hosts  :
(
    (LAPTOP-BPDVFV63 4)
)
Pstream initialized with:
    floatTransfer      : 0
    nProcsSimpleSum    : 0
    commsType          : nonBlocking
    polling iterations : 0
trapFpe: Floating point exception trapping enabled (FOAM_SIGFPE).
fileModificationChecking : Monitoring run-time modified files using timeStampMaster (fileModificationSkew 5, maxFileModificationPolls 20)
allowSystemOperations : Allowing user-supplied system call operations

// * * * * * * * * * * * * * * * * * * * * * * * * * * * * * * * * * * * * * //
Create time

Create mesh for time = 0


Reading base-flow pressure field

Reading bese-flow velocity field

Reading base-flow density field

Reading perturbation pressure field

Reading perturbation velocity field

Reading perturbation density field

Reading dampining coef field

Reading dampining coef field

Creating flux field

Creating flux field

Creating flux field

Reading transportProperties

Max Acoustic Courant Number = 0.049875

Starting the time loop

Time = 0.025
dt = 0.025
Base-Flow Courant Number mean: 0.0049875 max: 0.0049875
Perturbation Courant Number mean: 0 max: 0
GAMG:  Solving for rho, Initial residual = 0.000132631, Final residual = 4.13768e-11, No Iterations 1
smoothSolver:  Solving for Ux, Initial residual = 1, Final residual = 6.24168e-06, No Iterations 2
smoothSolver:  Solving for Uy, Initial residual = 1, Final residual = 6.22728e-06, No Iterations 2
diagonal:  Solving for p, Initial residual = 0, Final residual = 0, No Iterations 0
ExecutionTime = 0.21 s

Time = 0.05
dt = 0.025
Base-Flow Courant Number mean: 0.0049875 max: 0.0049875
Perturbation Courant Number mean: 0 max: 0
GAMG:  Solving for rho, Initial residual = 0.264532, Final residual = 3.77533e-08, No Iterations 1
smoothSolver:  Solving for Ux, Initial residual = 0.333332, Final residual = 6.1425e-07, No Iterations 2
smoothSolver:  Solving for Uy, Initial residual = 0.333333, Final residual = 5.81092e-07, No Iterations 2
diagonal:  Solving for p, Initial residual = 0, Final residual = 0, No Iterations 0
ExecutionTime = 0.26 s

Time = 0.075
dt = 0.025
Base-Flow Courant Number mean: 0.0049875 max: 0.0049875
Perturbation Courant Number mean: 0 max: 0
GAMG:  Solving for rho, Initial residual = 0.425265, Final residual = 5.64131e-08, No Iterations 1
smoothSolver:  Solving for Ux, Initial residual = 0.200001, Final residual = 3.68519e-07, No Iterations 2
smoothSolver:  Solving for Uy, Initial residual = 0.199997, Final residual = 3.48517e-07, No Iterations 2
diagonal:  Solving for p, Initial residual = 0, Final residual = 0, No Iterations 0
ExecutionTime = 0.42 s

Time = 0.1
dt = 0.025
Base-Flow Courant Number mean: 0.0049875 max: 0.0049875
Perturbation Courant Number mean: 0 max: 0
GAMG:  Solving for rho, Initial residual = 0.334109, Final residual = 4.63507e-08, No Iterations 1
smoothSolver:  Solving for Ux, Initial residual = 0.14286, Final residual = 2.63178e-07, No Iterations 2
smoothSolver:  Solving for Uy, Initial residual = 0.142853, Final residual = 2.48807e-07, No Iterations 2
diagonal:  Solving for p, Initial residual = 0, Final residual = 0, No Iterations 0
ExecutionTime = 0.66 s

Time = 0.125
dt = 0.025
Base-Flow Courant Number mean: 0.0049875 max: 0.0049875
Perturbation Courant Number mean: 0 max: 0
GAMG:  Solving for rho, Initial residual = 0.258313, Final residual = 3.60523e-08, No Iterations 1
smoothSolver:  Solving for Ux, Initial residual = 0.111113, Final residual = 2.04649e-07, No Iterations 2
smoothSolver:  Solving for Uy, Initial residual = 0.111105, Final residual = 1.93407e-07, No Iterations 2
diagonal:  Solving for p, Initial residual = 0, Final residual = 0, No Iterations 0
ExecutionTime = 0.8 s

Time = 0.15
dt = 0.025
Base-Flow Courant Number mean: 0.0049875 max: 0.0049875
Perturbation Courant Number mean: 0 max: 0
GAMG:  Solving for rho, Initial residual = 0.208027, Final residual = 2.90667e-08, No Iterations 1
smoothSolver:  Solving for Ux, Initial residual = 0.0909092, Final residual = 1.68081e-07, No Iterations 2
smoothSolver:  Solving for Uy, Initial residual = 0.0909006, Final residual = 1.58601e-07, No Iterations 2
diagonal:  Solving for p, Initial residual = 0, Final residual = 0, No Iterations 0
ExecutionTime = 0.93 s

Time = 0.175
dt = 0.025
Base-Flow Courant Number mean: 0.0049875 max: 0.0049875
Perturbation Courant Number mean: 0 max: 0
GAMG:  Solving for rho, Initial residual = 0.173408, Final residual = 2.42454e-08, No Iterations 1
smoothSolver:  Solving for Ux, Initial residual = 0.0769214, Final residual = 1.42192e-07, No Iterations 2
smoothSolver:  Solving for Uy, Initial residual = 0.0769125, Final residual = 1.34125e-07, No Iterations 2
diagonal:  Solving for p, Initial residual = 0, Final residual = 0, No Iterations 0
ExecutionTime = 0.99 s

Time = 0.2
dt = 0.025
Base-Flow Courant Number mean: 0.0049875 max: 0.0049875
Perturbation Courant Number mean: 0 max: 0
GAMG:  Solving for rho, Initial residual = 0.148391, Final residual = 2.07641e-08, No Iterations 1
smoothSolver:  Solving for Ux, Initial residual = 0.066663, Final residual = 1.23205e-07, No Iterations 2
smoothSolver:  Solving for Uy, Initial residual = 0.0666541, Final residual = 1.16176e-07, No Iterations 2
diagonal:  Solving for p, Initial residual = 0, Final residual = 0, No Iterations 0
ExecutionTime = 1.04 s

Time = 0.225
dt = 0.025
Base-Flow Courant Number mean: 0.0049875 max: 0.0049875
Perturbation Courant Number mean: 0 max: 0
GAMG:  Solving for rho, Initial residual = 0.129557, Final residual = 1.81388e-08, No Iterations 1
smoothSolver:  Solving for Ux, Initial residual = 0.0588178, Final residual = 1.08686e-07, No Iterations 2
smoothSolver:  Solving for Uy, Initial residual = 0.0588089, Final residual = 1.0245e-07, No Iterations 2
diagonal:  Solving for p, Initial residual = 0, Final residual = 0, No Iterations 0
ExecutionTime = 1.1 s

Time = 0.25
dt = 0.025
Base-Flow Courant Number mean: 0.0049875 max: 0.0049875
Perturbation Courant Number mean: 0 max: 0
GAMG:  Solving for rho, Initial residual = 0.114899, Final residual = 1.60815e-08, No Iterations 1
smoothSolver:  Solving for Ux, Initial residual = 0.0526238, Final residual = 9.72211e-08, No Iterations 2
smoothSolver:  Solving for Uy, Initial residual = 0.0526149, Final residual = 9.16126e-08, No Iterations 2
diagonal:  Solving for p, Initial residual = 0, Final residual = 0, No Iterations 0
ExecutionTime = 1.14 s

Time = 0.275
dt = 0.025
Base-Flow Courant Number mean: 0.0049875 max: 0.0049875
Perturbation Courant Number mean: 0 max: 0
GAMG:  Solving for rho, Initial residual = 0.103183, Final residual = 1.4452e-08, No Iterations 1
smoothSolver:  Solving for Ux, Initial residual = 0.0476092, Final residual = 8.794e-08, No Iterations 2
smoothSolver:  Solving for Uy, Initial residual = 0.0476004, Final residual = 8.28397e-08, No Iterations 2
diagonal:  Solving for p, Initial residual = 0, Final residual = 0, No Iterations 0
ExecutionTime = 1.2 s

Time = 0.3
dt = 0.025
Base-Flow Courant Number mean: 0.0049875 max: 0.0049875
Perturbation Courant Number mean: 0 max: 0
GAMG:  Solving for rho, Initial residual = 0.0936136, Final residual = 1.31173e-08, No Iterations 1
smoothSolver:  Solving for Ux, Initial residual = 0.0434662, Final residual = 8.02717e-08, No Iterations 2
smoothSolver:  Solving for Uy, Initial residual = 0.0434575, Final residual = 7.55913e-08, No Iterations 2
diagonal:  Solving for p, Initial residual = 0, Final residual = 0, No Iterations 0
ExecutionTime = 1.26 s

Time = 0.325
dt = 0.025
Base-Flow Courant Number mean: 0.0049875 max: 0.0049875
Perturbation Courant Number mean: 0 max: 0
GAMG:  Solving for rho, Initial residual = 0.0856547, Final residual = 1.20037e-08, No Iterations 1
smoothSolver:  Solving for Ux, Initial residual = 0.0399858, Final residual = 7.38297e-08, No Iterations 2
smoothSolver:  Solving for Uy, Initial residual = 0.0399773, Final residual = 6.95019e-08, No Iterations 2
diagonal:  Solving for p, Initial residual = 0, Final residual = 0, No Iterations 0
ExecutionTime = 1.32 s

Time = 0.35
dt = 0.025
Base-Flow Courant Number mean: 0.0049875 max: 0.0049875
Perturbation Courant Number mean: 0 max: 0
GAMG:  Solving for rho, Initial residual = 0.0789342, Final residual = 1.10618e-08, No Iterations 1
smoothSolver:  Solving for Ux, Initial residual = 0.0370207, Final residual = 6.83404e-08, No Iterations 2
smoothSolver:  Solving for Uy, Initial residual = 0.0370123, Final residual = 6.4314e-08, No Iterations 2
diagonal:  Solving for p, Initial residual = 0, Final residual = 0, No Iterations 0
ExecutionTime = 1.36 s

Time = 0.375
dt = 0.025
Base-Flow Courant Number mean: 0.0049875 max: 0.0049875
Perturbation Courant Number mean: 0 max: 0
GAMG:  Solving for rho, Initial residual = 0.0731854, Final residual = 1.02597e-08, No Iterations 1
smoothSolver:  Solving for Ux, Initial residual = 0.0344643, Final residual = 6.36077e-08, No Iterations 2
smoothSolver:  Solving for Uy, Initial residual = 0.0344559, Final residual = 5.98413e-08, No Iterations 2
diagonal:  Solving for p, Initial residual = 0, Final residual = 0, No Iterations 0
ExecutionTime = 1.41 s

Time = 0.4
dt = 0.025
Base-Flow Courant Number mean: 0.0049875 max: 0.0049875
Perturbation Courant Number mean: 0 max: 0
GAMG:  Solving for rho, Initial residual = 0.0682126, Final residual = 9.56032e-09, No Iterations 1
smoothSolver:  Solving for Ux, Initial residual = 0.0322374, Final residual = 5.94838e-08, No Iterations 2
smoothSolver:  Solving for Uy, Initial residual = 0.0322292, Final residual = 5.59454e-08, No Iterations 2
diagonal:  Solving for p, Initial residual = 0, Final residual = 0, No Iterations 0
ExecutionTime = 1.47 s

Time = 0.425
dt = 0.025
Base-Flow Courant Number mean: 0.0049875 max: 0.0049875
Perturbation Courant Number mean: 0 max: 0
GAMG:  Solving for rho, Initial residual = 0.0638693, Final residual = 8.94803e-09, No Iterations 1
smoothSolver:  Solving for Ux, Initial residual = 0.0302802, Final residual = 5.58584e-08, No Iterations 2
smoothSolver:  Solving for Uy, Initial residual = 0.0302722, Final residual = 5.25213e-08, No Iterations 2
diagonal:  Solving for p, Initial residual = 0, Final residual = 0, No Iterations 0
ExecutionTime = 1.55 s

Time = 0.45
dt = 0.025
Base-Flow Courant Number mean: 0.0049875 max: 0.0049875
Perturbation Courant Number mean: 0 max: 0
GAMG:  Solving for rho, Initial residual = 0.0600434, Final residual = 8.3938e-09, No Iterations 1
smoothSolver:  Solving for Ux, Initial residual = 0.0285465, Final residual = 5.26471e-08, No Iterations 2
smoothSolver:  Solving for Uy, Initial residual = 0.0285385, Final residual = 4.94884e-08, No Iterations 2
diagonal:  Solving for p, Initial residual = 0, Final residual = 0, No Iterations 0
ExecutionTime = 1.72 s

Time = 0.475
dt = 0.025
Base-Flow Courant Number mean: 0.0049875 max: 0.0049875
Perturbation Courant Number mean: 0 max: 0
GAMG:  Solving for rho, Initial residual = 0.0566478, Final residual = 7.90813e-09, No Iterations 1
smoothSolver:  Solving for Ux, Initial residual = 0.0269999, Final residual = 4.97829e-08, No Iterations 2
smoothSolver:  Solving for Uy, Initial residual = 0.0269921, Final residual = 4.67833e-08, No Iterations 2
diagonal:  Solving for p, Initial residual = 0, Final residual = 0, No Iterations 0
ExecutionTime = 1.84 s

Time = 0.5
dt = 0.025
Base-Flow Courant Number mean: 0.0049875 max: 0.0049875
Perturbation Courant Number mean: 0 max: 0
GAMG:  Solving for rho, Initial residual = 0.0536141, Final residual = 7.47966e-09, No Iterations 1
smoothSolver:  Solving for Ux, Initial residual = 0.0256117, Final residual = 4.72123e-08, No Iterations 2
smoothSolver:  Solving for Uy, Initial residual = 0.0256041, Final residual = 4.43556e-08, No Iterations 2
diagonal:  Solving for p, Initial residual = 0, Final residual = 0, No Iterations 0
ExecutionTime = 1.93 s

Time = 0.525
dt = 0.025
Base-Flow Courant Number mean: 0.0049875 max: 0.0049875
Perturbation Courant Number mean: 0 max: 0
GAMG:  Solving for rho, Initial residual = 0.0508874, Final residual = 7.09308e-09, No Iterations 1
smoothSolver:  Solving for Ux, Initial residual = 0.0243588, Final residual = 4.48924e-08, No Iterations 2
smoothSolver:  Solving for Uy, Initial residual = 0.0243513, Final residual = 4.21645e-08, No Iterations 2
diagonal:  Solving for p, Initial residual = 0, Final residual = 0, No Iterations 0
ExecutionTime = 1.98 s

Time = 0.55
dt = 0.025
Base-Flow Courant Number mean: 0.0049875 max: 0.0049875
Perturbation Courant Number mean: 0 max: 0
GAMG:  Solving for rho, Initial residual = 0.0484235, Final residual = 6.74282e-09, No Iterations 1
smoothSolver:  Solving for Ux, Initial residual = 0.0232222, Final residual = 4.27882e-08, No Iterations 2
smoothSolver:  Solving for Uy, Initial residual = 0.0232148, Final residual = 4.01772e-08, No Iterations 2
diagonal:  Solving for p, Initial residual = 0, Final residual = 0, No Iterations 0
ExecutionTime = 2.03 s

Time = 0.575
dt = 0.025
Base-Flow Courant Number mean: 0.0049875 max: 0.0049875
Perturbation Courant Number mean: 0 max: 0
GAMG:  Solving for rho, Initial residual = 0.046186, Final residual = 6.42202e-09, No Iterations 1
smoothSolver:  Solving for Ux, Initial residual = 0.0221864, Final residual = 4.08702e-08, No Iterations 2
smoothSolver:  Solving for Uy, Initial residual = 0.0221792, Final residual = 3.83645e-08, No Iterations 2
diagonal:  Solving for p, Initial residual = 0, Final residual = 0, No Iterations 0
ExecutionTime = 2.09 s

Time = 0.6
dt = 0.025
Base-Flow Courant Number mean: 0.0049875 max: 0.0049875
Perturbation Courant Number mean: 0 max: 0
GAMG:  Solving for rho, Initial residual = 0.0441453, Final residual = 6.12937e-09, No Iterations 1
smoothSolver:  Solving for Ux, Initial residual = 0.0212386, Final residual = 3.9115e-08, No Iterations 2
smoothSolver:  Solving for Uy, Initial residual = 0.0212315, Final residual = 3.67054e-08, No Iterations 2
diagonal:  Solving for p, Initial residual = 0, Final residual = 0, No Iterations 0
ExecutionTime = 2.14 s

Time = 0.625
dt = 0.025
Base-Flow Courant Number mean: 0.0049875 max: 0.0049875
Perturbation Courant Number mean: 0 max: 0
GAMG:  Solving for rho, Initial residual = 0.0422765, Final residual = 5.86536e-09, No Iterations 1
smoothSolver:  Solving for Ux, Initial residual = 0.020368, Final residual = 3.75028e-08, No Iterations 2
smoothSolver:  Solving for Uy, Initial residual = 0.0203611, Final residual = 3.51818e-08, No Iterations 2
diagonal:  Solving for p, Initial residual = 0, Final residual = 0, No Iterations 0
ExecutionTime = 2.18 s

Time = 0.65
dt = 0.025
Base-Flow Courant Number mean: 0.0049875 max: 0.0049875
Perturbation Courant Number mean: 0 max: 0
GAMG:  Solving for rho, Initial residual = 0.0405588, Final residual = 5.61913e-09, No Iterations 1
smoothSolver:  Solving for Ux, Initial residual = 0.0195655, Final residual = 3.60171e-08, No Iterations 2
smoothSolver:  Solving for Uy, Initial residual = 0.0195587, Final residual = 3.37777e-08, No Iterations 2
diagonal:  Solving for p, Initial residual = 0, Final residual = 0, No Iterations 0
ExecutionTime = 2.24 s

Time = 0.675
dt = 0.025
Base-Flow Courant Number mean: 0.0049875 max: 0.0049875
Perturbation Courant Number mean: 0 max: 0
GAMG:  Solving for rho, Initial residual = 0.0389746, Final residual = 5.37799e-09, No Iterations 1
smoothSolver:  Solving for Ux, Initial residual = 0.0188235, Final residual = 3.46433e-08, No Iterations 2
smoothSolver:  Solving for Uy, Initial residual = 0.0188168, Final residual = 3.24796e-08, No Iterations 2
diagonal:  Solving for p, Initial residual = 0, Final residual = 0, No Iterations 0
ExecutionTime = 2.29 s

Time = 0.7
dt = 0.025
Base-Flow Courant Number mean: 0.0049875 max: 0.0049875
Perturbation Courant Number mean: 0 max: 0
GAMG:  Solving for rho, Initial residual = 0.0375089, Final residual = 5.16917e-09, No Iterations 1
smoothSolver:  Solving for Ux, Initial residual = 0.0181352, Final residual = 3.35289e-08, No Iterations 2
smoothSolver:  Solving for Uy, Initial residual = 0.0181287, Final residual = 3.12979e-08, No Iterations 2
diagonal:  Solving for p, Initial residual = 0, Final residual = 0, No Iterations 0
ExecutionTime = 2.34 s

Time = 0.725
dt = 0.025
Base-Flow Courant Number mean: 0.0049875 max: 0.0049875
Perturbation Courant Number mean: 0 max: 0
GAMG:  Solving for rho, Initial residual = 0.036149, Final residual = 4.9749e-09, No Iterations 1
smoothSolver:  Solving for Ux, Initial residual = 0.0174951, Final residual = 3.249e-08, No Iterations 2
smoothSolver:  Solving for Uy, Initial residual = 0.0174887, Final residual = 3.02169e-08, No Iterations 2
diagonal:  Solving for p, Initial residual = 0, Final residual = 0, No Iterations 0
ExecutionTime = 2.46 s

Time = 0.75
dt = 0.025
Base-Flow Courant Number mean: 0.0049875 max: 0.0049875
Perturbation Courant Number mean: 0 max: 0
GAMG:  Solving for rho, Initial residual = 0.0348836, Final residual = 4.79369e-09, No Iterations 1
smoothSolver:  Solving for Ux, Initial residual = 0.0168982, Final residual = 3.13772e-08, No Iterations 2
smoothSolver:  Solving for Uy, Initial residual = 0.016892, Final residual = 2.91719e-08, No Iterations 2
diagonal:  Solving for p, Initial residual = 0, Final residual = 0, No Iterations 0
ExecutionTime = 2.54 s

Time = 0.775
dt = 0.025
Base-Flow Courant Number mean: 0.0049875 max: 0.0049875
Perturbation Courant Number mean: 0 max: 0
GAMG:  Solving for rho, Initial residual = 0.0337034, Final residual = 4.62436e-09, No Iterations 1
smoothSolver:  Solving for Ux, Initial residual = 0.0163403, Final residual = 3.03374e-08, No Iterations 2
smoothSolver:  Solving for Uy, Initial residual = 0.0163342, Final residual = 2.81954e-08, No Iterations 2
diagonal:  Solving for p, Initial residual = 0, Final residual = 0, No Iterations 0
ExecutionTime = 2.63 s

Time = 0.8
dt = 0.025
Base-Flow Courant Number mean: 0.0049875 max: 0.0049875
Perturbation Courant Number mean: 0 max: 0
GAMG:  Solving for rho, Initial residual = 0.0326002, Final residual = 4.46574e-09, No Iterations 1
smoothSolver:  Solving for Ux, Initial residual = 0.0158178, Final residual = 2.93634e-08, No Iterations 2
smoothSolver:  Solving for Uy, Initial residual = 0.0158118, Final residual = 2.72809e-08, No Iterations 2
diagonal:  Solving for p, Initial residual = 0, Final residual = 0, No Iterations 0
ExecutionTime = 2.68 s

Time = 0.825
dt = 0.025
Base-Flow Courant Number mean: 0.0049875 max: 0.0049875
Perturbation Courant Number mean: 0 max: 0
GAMG:  Solving for rho, Initial residual = 0.0315665, Final residual = 4.32052e-09, No Iterations 1
smoothSolver:  Solving for Ux, Initial residual = 0.0153272, Final residual = 2.84494e-08, No Iterations 2
smoothSolver:  Solving for Uy, Initial residual = 0.0153213, Final residual = 2.64227e-08, No Iterations 2
diagonal:  Solving for p, Initial residual = 0, Final residual = 0, No Iterations 0
ExecutionTime = 2.73 s

Time = 0.85
dt = 0.025
Base-Flow Courant Number mean: 0.0049875 max: 0.0049875
Perturbation Courant Number mean: 0 max: 0
GAMG:  Solving for rho, Initial residual = 0.0305959, Final residual = 4.17501e-09, No Iterations 1
smoothSolver:  Solving for Ux, Initial residual = 0.0148658, Final residual = 2.75897e-08, No Iterations 2
smoothSolver:  Solving for Uy, Initial residual = 0.0148601, Final residual = 2.56157e-08, No Iterations 2
diagonal:  Solving for p, Initial residual = 0, Final residual = 0, No Iterations 0
ExecutionTime = 2.77 s

Time = 0.875
dt = 0.025
Base-Flow Courant Number mean: 0.0049875 max: 0.0049875
Perturbation Courant Number mean: 0 max: 0
GAMG:  Solving for rho, Initial residual = 0.0296829, Final residual = 4.04377e-09, No Iterations 1
smoothSolver:  Solving for Ux, Initial residual = 0.014431, Final residual = 2.67791e-08, No Iterations 2
smoothSolver:  Solving for Uy, Initial residual = 0.0144254, Final residual = 2.4855e-08, No Iterations 2
diagonal:  Solving for p, Initial residual = 0, Final residual = 0, No Iterations 0
ExecutionTime = 2.82 s

Time = 0.9
dt = 0.025
Base-Flow Courant Number mean: 0.0049875 max: 0.0049875
Perturbation Courant Number mean: 0 max: 0
GAMG:  Solving for rho, Initial residual = 0.0288224, Final residual = 3.9201e-09, No Iterations 1
smoothSolver:  Solving for Ux, Initial residual = 0.0140206, Final residual = 2.60139e-08, No Iterations 2
smoothSolver:  Solving for Uy, Initial residual = 0.0140152, Final residual = 2.41367e-08, No Iterations 2
diagonal:  Solving for p, Initial residual = 0, Final residual = 0, No Iterations 0
ExecutionTime = 2.86 s

Time = 0.925
dt = 0.025
Base-Flow Courant Number mean: 0.0049875 max: 0.0049875
Perturbation Courant Number mean: 0 max: 0
GAMG:  Solving for rho, Initial residual = 0.0280099, Final residual = 3.80394e-09, No Iterations 1
smoothSolver:  Solving for Ux, Initial residual = 0.0136326, Final residual = 2.52904e-08, No Iterations 2
smoothSolver:  Solving for Uy, Initial residual = 0.0136273, Final residual = 2.34574e-08, No Iterations 2
diagonal:  Solving for p, Initial residual = 0, Final residual = 0, No Iterations 0
ExecutionTime = 2.91 s

Time = 0.95
dt = 0.025
Base-Flow Courant Number mean: 0.0049875 max: 0.0049875
Perturbation Courant Number mean: 0 max: 0
GAMG:  Solving for rho, Initial residual = 0.0272417, Final residual = 3.67823e-09, No Iterations 1
smoothSolver:  Solving for Ux, Initial residual = 0.0132652, Final residual = 2.46053e-08, No Iterations 2
smoothSolver:  Solving for Uy, Initial residual = 0.01326, Final residual = 2.28141e-08, No Iterations 2
diagonal:  Solving for p, Initial residual = 0, Final residual = 0, No Iterations 0
ExecutionTime = 2.95 s

Time = 0.975
dt = 0.025
Base-Flow Courant Number mean: 0.0049875 max: 0.0049875
Perturbation Courant Number mean: 0 max: 0
GAMG:  Solving for rho, Initial residual = 0.0265141, Final residual = 3.57609e-09, No Iterations 1
smoothSolver:  Solving for Ux, Initial residual = 0.0129167, Final residual = 2.39557e-08, No Iterations 2
smoothSolver:  Solving for Uy, Initial residual = 0.0129116, Final residual = 2.22042e-08, No Iterations 2
diagonal:  Solving for p, Initial residual = 0, Final residual = 0, No Iterations 0
ExecutionTime = 3 s

Time = 1
dt = 0.025
Base-Flow Courant Number mean: 0.0049875 max: 0.0049875
Perturbation Courant Number mean: 0 max: 0
GAMG:  Solving for rho, Initial residual = 0.025824, Final residual = 3.47761e-09, No Iterations 1
smoothSolver:  Solving for Ux, Initial residual = 0.0125857, Final residual = 2.3339e-08, No Iterations 2
smoothSolver:  Solving for Uy, Initial residual = 0.0125808, Final residual = 2.16252e-08, No Iterations 2
diagonal:  Solving for p, Initial residual = 0, Final residual = 0, No Iterations 0
ExecutionTime = 3.05 s

Time = 1.025
dt = 0.025
Base-Flow Courant Number mean: 0.0049875 max: 0.0049875
Perturbation Courant Number mean: 0 max: 0
GAMG:  Solving for rho, Initial residual = 0.0251686, Final residual = 3.38407e-09, No Iterations 1
smoothSolver:  Solving for Ux, Initial residual = 0.0122711, Final residual = 2.27527e-08, No Iterations 2
smoothSolver:  Solving for Uy, Initial residual = 0.0122663, Final residual = 2.10748e-08, No Iterations 2
diagonal:  Solving for p, Initial residual = 0, Final residual = 0, No Iterations 0
ExecutionTime = 3.16 s

Time = 1.05
dt = 0.025
Base-Flow Courant Number mean: 0.0049875 max: 0.0049875
Perturbation Courant Number mean: 0 max: 0
GAMG:  Solving for rho, Initial residual = 0.0245453, Final residual = 3.29513e-09, No Iterations 1
smoothSolver:  Solving for Ux, Initial residual = 0.0119714, Final residual = 2.21945e-08, No Iterations 2
smoothSolver:  Solving for Uy, Initial residual = 0.0119668, Final residual = 2.05508e-08, No Iterations 2
diagonal:  Solving for p, Initial residual = 0, Final residual = 0, No Iterations 0
ExecutionTime = 3.34 s

Time = 1.075
dt = 0.025
Base-Flow Courant Number mean: 0.0049875 max: 0.0049875
Perturbation Courant Number mean: 0 max: 0
GAMG:  Solving for rho, Initial residual = 0.0239518, Final residual = 3.21045e-09, No Iterations 1
smoothSolver:  Solving for Ux, Initial residual = 0.0116858, Final residual = 2.16626e-08, No Iterations 2
smoothSolver:  Solving for Uy, Initial residual = 0.0116813, Final residual = 2.00515e-08, No Iterations 2
diagonal:  Solving for p, Initial residual = 0, Final residual = 0, No Iterations 0
ExecutionTime = 3.54 s

Time = 1.1
dt = 0.025
Base-Flow Courant Number mean: 0.0049875 max: 0.0049875
Perturbation Courant Number mean: 0 max: 0
GAMG:  Solving for rho, Initial residual = 0.023386, Final residual = 3.12978e-09, No Iterations 1
smoothSolver:  Solving for Ux, Initial residual = 0.0114132, Final residual = 2.11551e-08, No Iterations 2
smoothSolver:  Solving for Uy, Initial residual = 0.0114088, Final residual = 1.95752e-08, No Iterations 2
diagonal:  Solving for p, Initial residual = 0, Final residual = 0, No Iterations 0
ExecutionTime = 3.81 s

Time = 1.125
dt = 0.025
Base-Flow Courant Number mean: 0.0049875 max: 0.0049875
Perturbation Courant Number mean: 0 max: 0
GAMG:  Solving for rho, Initial residual = 0.022846, Final residual = 3.03245e-09, No Iterations 1
smoothSolver:  Solving for Ux, Initial residual = 0.0111528, Final residual = 2.06703e-08, No Iterations 2
smoothSolver:  Solving for Uy, Initial residual = 0.0111485, Final residual = 1.91202e-08, No Iterations 2
diagonal:  Solving for p, Initial residual = 0, Final residual = 0, No Iterations 0
ExecutionTime = 4.27 s

Time = 1.15
dt = 0.025
Base-Flow Courant Number mean: 0.0049875 max: 0.0049875
Perturbation Courant Number mean: 0 max: 0
GAMG:  Solving for rho, Initial residual = 0.0223301, Final residual = 2.95971e-09, No Iterations 1
smoothSolver:  Solving for Ux, Initial residual = 0.0109037, Final residual = 2.02068e-08, No Iterations 2
smoothSolver:  Solving for Uy, Initial residual = 0.0108995, Final residual = 1.86852e-08, No Iterations 2
diagonal:  Solving for p, Initial residual = 0, Final residual = 0, No Iterations 0
ExecutionTime = 4.41 s

Time = 1.175
dt = 0.025
Base-Flow Courant Number mean: 0.0049875 max: 0.0049875
Perturbation Courant Number mean: 0 max: 0
GAMG:  Solving for rho, Initial residual = 0.0218367, Final residual = 2.89012e-09, No Iterations 1
smoothSolver:  Solving for Ux, Initial residual = 0.0106652, Final residual = 1.97632e-08, No Iterations 2
smoothSolver:  Solving for Uy, Initial residual = 0.0106612, Final residual = 1.82688e-08, No Iterations 2
diagonal:  Solving for p, Initial residual = 0, Final residual = 0, No Iterations 0
ExecutionTime = 4.52 s

Time = 1.2
dt = 0.025
Base-Flow Courant Number mean: 0.0049875 max: 0.0049875
Perturbation Courant Number mean: 0 max: 0
GAMG:  Solving for rho, Initial residual = 0.0213645, Final residual = 2.82346e-09, No Iterations 1
smoothSolver:  Solving for Ux, Initial residual = 0.0104367, Final residual = 1.93382e-08, No Iterations 2
smoothSolver:  Solving for Uy, Initial residual = 0.0104328, Final residual = 1.787e-08, No Iterations 2
diagonal:  Solving for p, Initial residual = 0, Final residual = 0, No Iterations 0
ExecutionTime = 4.59 s

Time = 1.225
dt = 0.025
Base-Flow Courant Number mean: 0.0049875 max: 0.0049875
Perturbation Courant Number mean: 0 max: 0
GAMG:  Solving for rho, Initial residual = 0.0209122, Final residual = 2.75572e-09, No Iterations 1
smoothSolver:  Solving for Ux, Initial residual = 0.0102175, Final residual = 1.89307e-08, No Iterations 2
smoothSolver:  Solving for Uy, Initial residual = 0.0102138, Final residual = 1.74876e-08, No Iterations 2
diagonal:  Solving for p, Initial residual = 0, Final residual = 0, No Iterations 0
ExecutionTime = 4.66 s

Time = 1.25
dt = 0.025
Base-Flow Courant Number mean: 0.0049875 max: 0.0049875
Perturbation Courant Number mean: 0 max: 0
GAMG:  Solving for rho, Initial residual = 0.0204785, Final residual = 2.69477e-09, No Iterations 1
smoothSolver:  Solving for Ux, Initial residual = 0.0100071, Final residual = 1.85831e-08, No Iterations 2
smoothSolver:  Solving for Uy, Initial residual = 0.0100035, Final residual = 1.71206e-08, No Iterations 2
diagonal:  Solving for p, Initial residual = 0, Final residual = 0, No Iterations 0
ExecutionTime = 4.72 s

Time = 1.275
dt = 0.025
Base-Flow Courant Number mean: 0.0049875 max: 0.0049875
Perturbation Courant Number mean: 0 max: 0
GAMG:  Solving for rho, Initial residual = 0.0200621, Final residual = 2.63752e-09, No Iterations 1
smoothSolver:  Solving for Ux, Initial residual = 0.00980496, Final residual = 1.82066e-08, No Iterations 2
smoothSolver:  Solving for Uy, Initial residual = 0.00980147, Final residual = 1.67681e-08, No Iterations 2
diagonal:  Solving for p, Initial residual = 0, Final residual = 0, No Iterations 0
ExecutionTime = 4.81 s

Time = 1.3
dt = 0.025
Base-Flow Courant Number mean: 0.0049875 max: 0.0049875
Perturbation Courant Number mean: 0 max: 0
GAMG:  Solving for rho, Initial residual = 0.019662, Final residual = 2.58129e-09, No Iterations 1
smoothSolver:  Solving for Ux, Initial residual = 0.00961058, Final residual = 1.78448e-08, No Iterations 2
smoothSolver:  Solving for Uy, Initial residual = 0.00960721, Final residual = 1.64292e-08, No Iterations 2
diagonal:  Solving for p, Initial residual = 0, Final residual = 0, No Iterations 0
ExecutionTime = 4.87 s

Time = 1.325
dt = 0.025
Base-Flow Courant Number mean: 0.0049875 max: 0.0049875
Perturbation Courant Number mean: 0 max: 0
GAMG:  Solving for rho, Initial residual = 0.0192774, Final residual = 2.52755e-09, No Iterations 1
smoothSolver:  Solving for Ux, Initial residual = 0.00942352, Final residual = 1.74966e-08, No Iterations 2
smoothSolver:  Solving for Uy, Initial residual = 0.00942028, Final residual = 1.61033e-08, No Iterations 2
diagonal:  Solving for p, Initial residual = 0, Final residual = 0, No Iterations 0
ExecutionTime = 4.93 s

Time = 1.35
dt = 0.025
Base-Flow Courant Number mean: 0.0049875 max: 0.0049875
Perturbation Courant Number mean: 0 max: 0
GAMG:  Solving for rho, Initial residual = 0.0189073, Final residual = 2.47552e-09, No Iterations 1
smoothSolver:  Solving for Ux, Initial residual = 0.00924337, Final residual = 1.71614e-08, No Iterations 2
smoothSolver:  Solving for Uy, Initial residual = 0.00924026, Final residual = 1.57894e-08, No Iterations 2
diagonal:  Solving for p, Initial residual = 0, Final residual = 0, No Iterations 0
ExecutionTime = 4.97 s

Time = 1.375
dt = 0.025
Base-Flow Courant Number mean: 0.0049875 max: 0.0049875
Perturbation Courant Number mean: 0 max: 0
GAMG:  Solving for rho, Initial residual = 0.0185509, Final residual = 2.42638e-09, No Iterations 1
smoothSolver:  Solving for Ux, Initial residual = 0.00906976, Final residual = 1.68385e-08, No Iterations 2
smoothSolver:  Solving for Uy, Initial residual = 0.00906677, Final residual = 1.54871e-08, No Iterations 2
diagonal:  Solving for p, Initial residual = 0, Final residual = 0, No Iterations 0
ExecutionTime = 5.02 s

Time = 1.4
dt = 0.025
Base-Flow Courant Number mean: 0.0049875 max: 0.0049875
Perturbation Courant Number mean: 0 max: 0
GAMG:  Solving for rho, Initial residual = 0.0182075, Final residual = 2.37807e-09, No Iterations 1
smoothSolver:  Solving for Ux, Initial residual = 0.00890233, Final residual = 1.6527e-08, No Iterations 2
smoothSolver:  Solving for Uy, Initial residual = 0.00889947, Final residual = 1.51953e-08, No Iterations 2
diagonal:  Solving for p, Initial residual = 0, Final residual = 0, No Iterations 0
ExecutionTime = 5.1 s

Time = 1.425
dt = 0.025
Base-Flow Courant Number mean: 0.0049875 max: 0.0049875
Perturbation Courant Number mean: 0 max: 0
GAMG:  Solving for rho, Initial residual = 0.0178763, Final residual = 2.33148e-09, No Iterations 1
smoothSolver:  Solving for Ux, Initial residual = 0.00874075, Final residual = 1.62265e-08, No Iterations 2
smoothSolver:  Solving for Uy, Initial residual = 0.00873802, Final residual = 1.49137e-08, No Iterations 2
diagonal:  Solving for p, Initial residual = 0, Final residual = 0, No Iterations 0
ExecutionTime = 5.16 s

Time = 1.45
dt = 0.025
Base-Flow Courant Number mean: 0.0049875 max: 0.0049875
Perturbation Courant Number mean: 0 max: 0
GAMG:  Solving for rho, Initial residual = 0.0175568, Final residual = 2.27502e-09, No Iterations 1
smoothSolver:  Solving for Ux, Initial residual = 0.00858471, Final residual = 1.59364e-08, No Iterations 2
smoothSolver:  Solving for Uy, Initial residual = 0.00858211, Final residual = 1.46419e-08, No Iterations 2
diagonal:  Solving for p, Initial residual = 0, Final residual = 0, No Iterations 0
ExecutionTime = 5.25 s

Time = 1.475
dt = 0.025
Base-Flow Courant Number mean: 0.0049875 max: 0.0049875
Perturbation Courant Number mean: 0 max: 0
GAMG:  Solving for rho, Initial residual = 0.0172482, Final residual = 2.23192e-09, No Iterations 1
smoothSolver:  Solving for Ux, Initial residual = 0.00843395, Final residual = 1.56562e-08, No Iterations 2
smoothSolver:  Solving for Uy, Initial residual = 0.00843147, Final residual = 1.43793e-08, No Iterations 2
diagonal:  Solving for p, Initial residual = 0, Final residual = 0, No Iterations 0
ExecutionTime = 5.34 s

Time = 1.5
dt = 0.025
Base-Flow Courant Number mean: 0.0049875 max: 0.0049875
Perturbation Courant Number mean: 0 max: 0
GAMG:  Solving for rho, Initial residual = 0.0169502, Final residual = 2.19106e-09, No Iterations 1
smoothSolver:  Solving for Ux, Initial residual = 0.00828817, Final residual = 1.53853e-08, No Iterations 2
smoothSolver:  Solving for Uy, Initial residual = 0.00828582, Final residual = 1.41256e-08, No Iterations 2
diagonal:  Solving for p, Initial residual = 0, Final residual = 0, No Iterations 0
ExecutionTime = 5.48 s

Time = 1.525
dt = 0.025
Base-Flow Courant Number mean: 0.0049875 max: 0.0049875
Perturbation Courant Number mean: 0 max: 0
GAMG:  Solving for rho, Initial residual = 0.016662, Final residual = 2.15074e-09, No Iterations 1
smoothSolver:  Solving for Ux, Initial residual = 0.00814715, Final residual = 1.51233e-08, No Iterations 2
smoothSolver:  Solving for Uy, Initial residual = 0.00814493, Final residual = 1.38798e-08, No Iterations 2
diagonal:  Solving for p, Initial residual = 0, Final residual = 0, No Iterations 0
ExecutionTime = 5.65 s

Time = 1.55
dt = 0.025
Base-Flow Courant Number mean: 0.0049875 max: 0.0049875
Perturbation Courant Number mean: 0 max: 0
GAMG:  Solving for rho, Initial residual = 0.0163833, Final residual = 2.11173e-09, No Iterations 1
smoothSolver:  Solving for Ux, Initial residual = 0.00801065, Final residual = 1.48697e-08, No Iterations 2
smoothSolver:  Solving for Uy, Initial residual = 0.00800855, Final residual = 1.36416e-08, No Iterations 2
diagonal:  Solving for p, Initial residual = 0, Final residual = 0, No Iterations 0
ExecutionTime = 5.73 s

Time = 1.575
dt = 0.025
Base-Flow Courant Number mean: 0.0049875 max: 0.0049875
Perturbation Courant Number mean: 0 max: 0
GAMG:  Solving for rho, Initial residual = 0.0161136, Final residual = 2.0716e-09, No Iterations 1
smoothSolver:  Solving for Ux, Initial residual = 0.00787845, Final residual = 1.46241e-08, No Iterations 2
smoothSolver:  Solving for Uy, Initial residual = 0.00787647, Final residual = 1.34108e-08, No Iterations 2
diagonal:  Solving for p, Initial residual = 0, Final residual = 0, No Iterations 0
ExecutionTime = 5.84 s

Time = 1.6
dt = 0.025
Base-Flow Courant Number mean: 0.0049875 max: 0.0049875
Perturbation Courant Number mean: 0 max: 0
GAMG:  Solving for rho, Initial residual = 0.0158524, Final residual = 2.03589e-09, No Iterations 1
smoothSolver:  Solving for Ux, Initial residual = 0.00775034, Final residual = 1.43862e-08, No Iterations 2
smoothSolver:  Solving for Uy, Initial residual = 0.00774849, Final residual = 1.31872e-08, No Iterations 2
diagonal:  Solving for p, Initial residual = 0, Final residual = 0, No Iterations 0
ExecutionTime = 5.89 s

Time = 1.625
dt = 0.025
Base-Flow Courant Number mean: 0.0049875 max: 0.0049875
Perturbation Courant Number mean: 0 max: 0
GAMG:  Solving for rho, Initial residual = 0.0155994, Final residual = 2.00075e-09, No Iterations 1
smoothSolver:  Solving for Ux, Initial residual = 0.00762615, Final residual = 1.41556e-08, No Iterations 2
smoothSolver:  Solving for Uy, Initial residual = 0.00762442, Final residual = 1.29704e-08, No Iterations 2
diagonal:  Solving for p, Initial residual = 0, Final residual = 0, No Iterations 0
ExecutionTime = 5.94 s

Time = 1.65
dt = 0.025
Base-Flow Courant Number mean: 0.0049875 max: 0.0049875
Perturbation Courant Number mean: 0 max: 0
GAMG:  Solving for rho, Initial residual = 0.0153541, Final residual = 1.96665e-09, No Iterations 1
smoothSolver:  Solving for Ux, Initial residual = 0.00750568, Final residual = 1.3932e-08, No Iterations 2
smoothSolver:  Solving for Uy, Initial residual = 0.00750408, Final residual = 1.27602e-08, No Iterations 2
diagonal:  Solving for p, Initial residual = 0, Final residual = 0, No Iterations 0
ExecutionTime = 5.99 s

Time = 1.675
dt = 0.025
Base-Flow Courant Number mean: 0.0049875 max: 0.0049875
Perturbation Courant Number mean: 0 max: 0
GAMG:  Solving for rho, Initial residual = 0.0151162, Final residual = 1.93355e-09, No Iterations 1
smoothSolver:  Solving for Ux, Initial residual = 0.00738877, Final residual = 1.3715e-08, No Iterations 2
smoothSolver:  Solving for Uy, Initial residual = 0.0073873, Final residual = 1.25561e-08, No Iterations 2
diagonal:  Solving for p, Initial residual = 0, Final residual = 0, No Iterations 0
ExecutionTime = 6.04 s

Time = 1.7
dt = 0.025
Base-Flow Courant Number mean: 0.0049875 max: 0.0049875
Perturbation Courant Number mean: 0 max: 0
GAMG:  Solving for rho, Initial residual = 0.0148853, Final residual = 1.90194e-09, No Iterations 1
smoothSolver:  Solving for Ux, Initial residual = 0.00727527, Final residual = 1.35044e-08, No Iterations 2
smoothSolver:  Solving for Uy, Initial residual = 0.00727392, Final residual = 1.23579e-08, No Iterations 2
diagonal:  Solving for p, Initial residual = 0, Final residual = 0, No Iterations 0
ExecutionTime = 6.09 s

Time = 1.725
dt = 0.025
Base-Flow Courant Number mean: 0.0049875 max: 0.0049875
Perturbation Courant Number mean: 0 max: 0
GAMG:  Solving for rho, Initial residual = 0.0146612, Final residual = 1.87077e-09, No Iterations 1
smoothSolver:  Solving for Ux, Initial residual = 0.00716502, Final residual = 1.32998e-08, No Iterations 2
smoothSolver:  Solving for Uy, Initial residual = 0.00716379, Final residual = 1.21654e-08, No Iterations 2
diagonal:  Solving for p, Initial residual = 0, Final residual = 0, No Iterations 0
ExecutionTime = 6.14 s

Time = 1.75
dt = 0.025
Base-Flow Courant Number mean: 0.0049875 max: 0.0049875
Perturbation Courant Number mean: 0 max: 0
GAMG:  Solving for rho, Initial residual = 0.0144436, Final residual = 1.84051e-09, No Iterations 1
smoothSolver:  Solving for Ux, Initial residual = 0.00705788, Final residual = 1.31011e-08, No Iterations 2
smoothSolver:  Solving for Uy, Initial residual = 0.00705678, Final residual = 1.19782e-08, No Iterations 2
diagonal:  Solving for p, Initial residual = 0, Final residual = 0, No Iterations 0
ExecutionTime = 6.21 s

Time = 1.775
dt = 0.025
Base-Flow Courant Number mean: 0.0049875 max: 0.0049875
Perturbation Courant Number mean: 0 max: 0
GAMG:  Solving for rho, Initial residual = 0.0142323, Final residual = 1.81151e-09, No Iterations 1
smoothSolver:  Solving for Ux, Initial residual = 0.00695372, Final residual = 1.29079e-08, No Iterations 2
smoothSolver:  Solving for Uy, Initial residual = 0.00695275, Final residual = 1.17962e-08, No Iterations 2
diagonal:  Solving for p, Initial residual = 0, Final residual = 0, No Iterations 0
ExecutionTime = 6.32 s

Time = 1.8
dt = 0.025
Base-Flow Courant Number mean: 0.0049875 max: 0.0049875
Perturbation Courant Number mean: 0 max: 0
GAMG:  Solving for rho, Initial residual = 0.0140268, Final residual = 1.78293e-09, No Iterations 1
smoothSolver:  Solving for Ux, Initial residual = 0.00685242, Final residual = 1.272e-08, No Iterations 2
smoothSolver:  Solving for Uy, Initial residual = 0.00685157, Final residual = 1.16191e-08, No Iterations 2
diagonal:  Solving for p, Initial residual = 0, Final residual = 0, No Iterations 0
ExecutionTime = 6.37 s

Time = 1.825
dt = 0.025
Base-Flow Courant Number mean: 0.0049875 max: 0.0049875
Perturbation Courant Number mean: 0 max: 0
GAMG:  Solving for rho, Initial residual = 0.013827, Final residual = 1.75515e-09, No Iterations 1
smoothSolver:  Solving for Ux, Initial residual = 0.00675385, Final residual = 1.25373e-08, No Iterations 2
smoothSolver:  Solving for Uy, Initial residual = 0.00675313, Final residual = 1.14467e-08, No Iterations 2
diagonal:  Solving for p, Initial residual = 0, Final residual = 0, No Iterations 0
ExecutionTime = 6.43 s

Time = 1.85
dt = 0.025
Base-Flow Courant Number mean: 0.0049875 max: 0.0049875
Perturbation Courant Number mean: 0 max: 0
GAMG:  Solving for rho, Initial residual = 0.0136328, Final residual = 1.72871e-09, No Iterations 1
smoothSolver:  Solving for Ux, Initial residual = 0.00665791, Final residual = 1.23594e-08, No Iterations 2
smoothSolver:  Solving for Uy, Initial residual = 0.00665732, Final residual = 1.12788e-08, No Iterations 2
diagonal:  Solving for p, Initial residual = 0, Final residual = 0, No Iterations 0
ExecutionTime = 6.48 s

Time = 1.875
dt = 0.025
Base-Flow Courant Number mean: 0.0049875 max: 0.0049875
Perturbation Courant Number mean: 0 max: 0
GAMG:  Solving for rho, Initial residual = 0.0134437, Final residual = 1.70239e-09, No Iterations 1
smoothSolver:  Solving for Ux, Initial residual = 0.00656449, Final residual = 1.21862e-08, No Iterations 2
smoothSolver:  Solving for Uy, Initial residual = 0.00656403, Final residual = 1.11152e-08, No Iterations 2
diagonal:  Solving for p, Initial residual = 0, Final residual = 0, No Iterations 0
ExecutionTime = 6.53 s

Time = 1.9
dt = 0.025
Base-Flow Courant Number mean: 0.0049875 max: 0.0049875
Perturbation Courant Number mean: 0 max: 0
GAMG:  Solving for rho, Initial residual = 0.0132597, Final residual = 1.67677e-09, No Iterations 1
smoothSolver:  Solving for Ux, Initial residual = 0.00647349, Final residual = 1.20176e-08, No Iterations 2
smoothSolver:  Solving for Uy, Initial residual = 0.00647316, Final residual = 1.09558e-08, No Iterations 2
diagonal:  Solving for p, Initial residual = 0, Final residual = 0, No Iterations 0
ExecutionTime = 6.58 s

Time = 1.925
dt = 0.025
Base-Flow Courant Number mean: 0.0049875 max: 0.0049875
Perturbation Courant Number mean: 0 max: 0
GAMG:  Solving for rho, Initial residual = 0.0130806, Final residual = 1.65216e-09, No Iterations 1
smoothSolver:  Solving for Ux, Initial residual = 0.00638482, Final residual = 1.18528e-08, No Iterations 2
smoothSolver:  Solving for Uy, Initial residual = 0.00638461, Final residual = 1.08e-08, No Iterations 2
diagonal:  Solving for p, Initial residual = 0, Final residual = 0, No Iterations 0
ExecutionTime = 6.62 s

Time = 1.95
dt = 0.025
Base-Flow Courant Number mean: 0.0049875 max: 0.0049875
Perturbation Courant Number mean: 0 max: 0
GAMG:  Solving for rho, Initial residual = 0.012906, Final residual = 1.62824e-09, No Iterations 1
smoothSolver:  Solving for Ux, Initial residual = 0.00629838, Final residual = 1.1692e-08, No Iterations 2
smoothSolver:  Solving for Uy, Initial residual = 0.0062983, Final residual = 1.06477e-08, No Iterations 2
diagonal:  Solving for p, Initial residual = 0, Final residual = 0, No Iterations 0
ExecutionTime = 6.67 s

Time = 1.975
dt = 0.025
Base-Flow Courant Number mean: 0.0049875 max: 0.0049875
Perturbation Courant Number mean: 0 max: 0
GAMG:  Solving for rho, Initial residual = 0.012736, Final residual = 1.60274e-09, No Iterations 1
smoothSolver:  Solving for Ux, Initial residual = 0.00621409, Final residual = 1.15573e-08, No Iterations 2
smoothSolver:  Solving for Uy, Initial residual = 0.00621414, Final residual = 1.05462e-08, No Iterations 2
diagonal:  Solving for p, Initial residual = 0, Final residual = 0, No Iterations 0
ExecutionTime = 6.72 s

Time = 2
dt = 0.025
Base-Flow Courant Number mean: 0.0049875 max: 0.0049875
Perturbation Courant Number mean: 0 max: 0
GAMG:  Solving for rho, Initial residual = 0.0125703, Final residual = 1.58068e-09, No Iterations 1
smoothSolver:  Solving for Ux, Initial residual = 0.00613187, Final residual = 1.14045e-08, No Iterations 2
smoothSolver:  Solving for Uy, Initial residual = 0.00613205, Final residual = 1.04007e-08, No Iterations 2
diagonal:  Solving for p, Initial residual = 0, Final residual = 0, No Iterations 0
ExecutionTime = 6.77 s

Time = 2.025
dt = 0.025
Base-Flow Courant Number mean: 0.0049875 max: 0.0049875
Perturbation Courant Number mean: 0 max: 0
GAMG:  Solving for rho, Initial residual = 0.0124087, Final residual = 1.55869e-09, No Iterations 1
smoothSolver:  Solving for Ux, Initial residual = 0.00605164, Final residual = 1.12551e-08, No Iterations 2
smoothSolver:  Solving for Uy, Initial residual = 0.00605195, Final residual = 1.02588e-08, No Iterations 2
diagonal:  Solving for p, Initial residual = 0, Final residual = 0, No Iterations 0
ExecutionTime = 6.81 s

Time = 2.05
dt = 0.025
Base-Flow Courant Number mean: 0.0049875 max: 0.0049875
Perturbation Courant Number mean: 0 max: 0
GAMG:  Solving for rho, Initial residual = 0.012251, Final residual = 1.5374e-09, No Iterations 1
smoothSolver:  Solving for Ux, Initial residual = 0.00597332, Final residual = 1.11094e-08, No Iterations 2
smoothSolver:  Solving for Uy, Initial residual = 0.00597376, Final residual = 1.01204e-08, No Iterations 2
diagonal:  Solving for p, Initial residual = 0, Final residual = 0, No Iterations 0
ExecutionTime = 6.86 s

Time = 2.075
dt = 0.025
Base-Flow Courant Number mean: 0.0049875 max: 0.0049875
Perturbation Courant Number mean: 0 max: 0
GAMG:  Solving for rho, Initial residual = 0.0120972, Final residual = 1.51642e-09, No Iterations 1
smoothSolver:  Solving for Ux, Initial residual = 0.00589686, Final residual = 1.09671e-08, No Iterations 2
smoothSolver:  Solving for Uy, Initial residual = 0.00589743, Final residual = 9.98528e-09, No Iterations 2
diagonal:  Solving for p, Initial residual = 0, Final residual = 0, No Iterations 0
ExecutionTime = 6.92 s

Time = 2.1
dt = 0.025
Base-Flow Courant Number mean: 0.0049875 max: 0.0049875
Perturbation Courant Number mean: 0 max: 0
GAMG:  Solving for rho, Initial residual = 0.011947, Final residual = 1.496e-09, No Iterations 1
smoothSolver:  Solving for Ux, Initial residual = 0.00582218, Final residual = 1.08281e-08, No Iterations 2
smoothSolver:  Solving for Uy, Initial residual = 0.00582288, Final residual = 9.85326e-09, No Iterations 2
diagonal:  Solving for p, Initial residual = 0, Final residual = 0, No Iterations 0
ExecutionTime = 6.97 s

Time = 2.125
dt = 0.025
Base-Flow Courant Number mean: 0.0049875 max: 0.0049875
Perturbation Courant Number mean: 0 max: 0
GAMG:  Solving for rho, Initial residual = 0.0118003, Final residual = 1.47597e-09, No Iterations 1
smoothSolver:  Solving for Ux, Initial residual = 0.00574989, Final residual = 1.07384e-08, No Iterations 2
smoothSolver:  Solving for Uy, Initial residual = 0.00575005, Final residual = 9.78991e-09, No Iterations 2
diagonal:  Solving for p, Initial residual = 0, Final residual = 0, No Iterations 0
ExecutionTime = 7.01 s

Time = 2.15
dt = 0.025
Base-Flow Courant Number mean: 0.0049875 max: 0.0049875
Perturbation Courant Number mean: 0 max: 0
GAMG:  Solving for rho, Initial residual = 0.0116571, Final residual = 1.46407e-09, No Iterations 1
smoothSolver:  Solving for Ux, Initial residual = 0.00567904, Final residual = 1.06066e-08, No Iterations 2
smoothSolver:  Solving for Uy, Initial residual = 0.00567888, Final residual = 9.66375e-09, No Iterations 2
diagonal:  Solving for p, Initial residual = 0, Final residual = 0, No Iterations 0
ExecutionTime = 7.06 s

Time = 2.175
dt = 0.025
Base-Flow Courant Number mean: 0.0049875 max: 0.0049875
Perturbation Courant Number mean: 0 max: 0
GAMG:  Solving for rho, Initial residual = 0.0115171, Final residual = 1.44492e-09, No Iterations 1
smoothSolver:  Solving for Ux, Initial residual = 0.00560932, Final residual = 1.04769e-08, No Iterations 2
smoothSolver:  Solving for Uy, Initial residual = 0.00560931, Final residual = 9.54047e-09, No Iterations 2
diagonal:  Solving for p, Initial residual = 0, Final residual = 0, No Iterations 0
ExecutionTime = 7.1 s

Time = 2.2
dt = 0.025
Base-Flow Courant Number mean: 0.0049875 max: 0.0049875
Perturbation Courant Number mean: 0 max: 0
GAMG:  Solving for rho, Initial residual = 0.0113804, Final residual = 1.42628e-09, No Iterations 1
smoothSolver:  Solving for Ux, Initial residual = 0.00554115, Final residual = 1.03501e-08, No Iterations 2
smoothSolver:  Solving for Uy, Initial residual = 0.00554129, Final residual = 9.41997e-09, No Iterations 2
diagonal:  Solving for p, Initial residual = 0, Final residual = 0, No Iterations 0
ExecutionTime = 7.17 s

Time = 2.225
dt = 0.025
Base-Flow Courant Number mean: 0.0049875 max: 0.0049875
Perturbation Courant Number mean: 0 max: 0
GAMG:  Solving for rho, Initial residual = 0.0112467, Final residual = 1.408e-09, No Iterations 1
smoothSolver:  Solving for Ux, Initial residual = 0.00547448, Final residual = 1.02261e-08, No Iterations 2
smoothSolver:  Solving for Uy, Initial residual = 0.00547476, Final residual = 9.30216e-09, No Iterations 2
diagonal:  Solving for p, Initial residual = 0, Final residual = 0, No Iterations 0
ExecutionTime = 7.22 s

Time = 2.25
dt = 0.025
Base-Flow Courant Number mean: 0.0049875 max: 0.0049875
Perturbation Courant Number mean: 0 max: 0
GAMG:  Solving for rho, Initial residual = 0.011116, Final residual = 1.39019e-09, No Iterations 1
smoothSolver:  Solving for Ux, Initial residual = 0.00540925, Final residual = 1.01048e-08, No Iterations 2
smoothSolver:  Solving for Uy, Initial residual = 0.00540967, Final residual = 9.18691e-09, No Iterations 2
diagonal:  Solving for p, Initial residual = 0, Final residual = 0, No Iterations 0
ExecutionTime = 7.27 s

Time = 2.275
dt = 0.025
Base-Flow Courant Number mean: 0.0049875 max: 0.0049875
Perturbation Courant Number mean: 0 max: 0
GAMG:  Solving for rho, Initial residual = 0.0109881, Final residual = 1.37279e-09, No Iterations 1
smoothSolver:  Solving for Ux, Initial residual = 0.00534541, Final residual = 9.98592e-09, No Iterations 2
smoothSolver:  Solving for Uy, Initial residual = 0.00534599, Final residual = 9.07403e-09, No Iterations 2
diagonal:  Solving for p, Initial residual = 0, Final residual = 0, No Iterations 0
ExecutionTime = 7.35 s

Time = 2.3
dt = 0.025
Base-Flow Courant Number mean: 0.0049875 max: 0.0049875
Perturbation Courant Number mean: 0 max: 0
GAMG:  Solving for rho, Initial residual = 0.0108631, Final residual = 1.35581e-09, No Iterations 1
smoothSolver:  Solving for Ux, Initial residual = 0.00528293, Final residual = 9.86958e-09, No Iterations 2
smoothSolver:  Solving for Uy, Initial residual = 0.00528365, Final residual = 8.96358e-09, No Iterations 2
diagonal:  Solving for p, Initial residual = 0, Final residual = 0, No Iterations 0
ExecutionTime = 7.41 s

Time = 2.325
dt = 0.025
Base-Flow Courant Number mean: 0.0049875 max: 0.0049875
Perturbation Courant Number mean: 0 max: 0
GAMG:  Solving for rho, Initial residual = 0.0107408, Final residual = 1.33921e-09, No Iterations 1
smoothSolver:  Solving for Ux, Initial residual = 0.00522175, Final residual = 9.75572e-09, No Iterations 2
smoothSolver:  Solving for Uy, Initial residual = 0.00522262, Final residual = 8.85548e-09, No Iterations 2
diagonal:  Solving for p, Initial residual = 0, Final residual = 0, No Iterations 0
ExecutionTime = 7.46 s

Time = 2.35
dt = 0.025
Base-Flow Courant Number mean: 0.0049875 max: 0.0049875
Perturbation Courant Number mean: 0 max: 0
GAMG:  Solving for rho, Initial residual = 0.010621, Final residual = 1.323e-09, No Iterations 1
smoothSolver:  Solving for Ux, Initial residual = 0.00516184, Final residual = 9.64426e-09, No Iterations 2
smoothSolver:  Solving for Uy, Initial residual = 0.00516286, Final residual = 8.74966e-09, No Iterations 2
diagonal:  Solving for p, Initial residual = 0, Final residual = 0, No Iterations 0
ExecutionTime = 7.5 s

Time = 2.375
dt = 0.025
Base-Flow Courant Number mean: 0.0049875 max: 0.0049875
Perturbation Courant Number mean: 0 max: 0
GAMG:  Solving for rho, Initial residual = 0.0105038, Final residual = 1.30715e-09, No Iterations 1
smoothSolver:  Solving for Ux, Initial residual = 0.00510315, Final residual = 9.53513e-09, No Iterations 2
smoothSolver:  Solving for Uy, Initial residual = 0.00510432, Final residual = 8.64604e-09, No Iterations 2
diagonal:  Solving for p, Initial residual = 0, Final residual = 0, No Iterations 0
ExecutionTime = 7.54 s

Time = 2.4
dt = 0.025
Base-Flow Courant Number mean: 0.0049875 max: 0.0049875
Perturbation Courant Number mean: 0 max: 0
GAMG:  Solving for rho, Initial residual = 0.010389, Final residual = 1.29166e-09, No Iterations 1
smoothSolver:  Solving for Ux, Initial residual = 0.0050457, Final residual = 9.42824e-09, No Iterations 2
smoothSolver:  Solving for Uy, Initial residual = 0.00504697, Final residual = 8.54455e-09, No Iterations 2
diagonal:  Solving for p, Initial residual = 0, Final residual = 0, No Iterations 0
ExecutionTime = 7.58 s

Time = 2.425
dt = 0.025
Base-Flow Courant Number mean: 0.0049875 max: 0.0049875
Perturbation Courant Number mean: 0 max: 0
GAMG:  Solving for rho, Initial residual = 0.0102766, Final residual = 1.27643e-09, No Iterations 1
smoothSolver:  Solving for Ux, Initial residual = 0.00498941, Final residual = 9.32354e-09, No Iterations 2
smoothSolver:  Solving for Uy, Initial residual = 0.00499076, Final residual = 8.44513e-09, No Iterations 2
diagonal:  Solving for p, Initial residual = 0, Final residual = 0, No Iterations 0
ExecutionTime = 7.62 s

Time = 2.45
dt = 0.025
Base-Flow Courant Number mean: 0.0049875 max: 0.0049875
Perturbation Courant Number mean: 0 max: 0
GAMG:  Solving for rho, Initial residual = 0.0101664, Final residual = 1.26153e-09, No Iterations 1
smoothSolver:  Solving for Ux, Initial residual = 0.00493444, Final residual = 9.22096e-09, No Iterations 2
smoothSolver:  Solving for Uy, Initial residual = 0.00493568, Final residual = 8.34772e-09, No Iterations 2
diagonal:  Solving for p, Initial residual = 0, Final residual = 0, No Iterations 0
ExecutionTime = 7.66 s

Time = 2.475
dt = 0.025
Base-Flow Courant Number mean: 0.0049875 max: 0.0049875
Perturbation Courant Number mean: 0 max: 0
GAMG:  Solving for rho, Initial residual = 0.0100585, Final residual = 1.24692e-09, No Iterations 1
smoothSolver:  Solving for Ux, Initial residual = 0.00488077, Final residual = 9.12042e-09, No Iterations 2
smoothSolver:  Solving for Uy, Initial residual = 0.00488167, Final residual = 8.25224e-09, No Iterations 2
diagonal:  Solving for p, Initial residual = 0, Final residual = 0, No Iterations 0
ExecutionTime = 7.71 s

Time = 2.5
dt = 0.025
Base-Flow Courant Number mean: 0.0049875 max: 0.0049875
Perturbation Courant Number mean: 0 max: 0
GAMG:  Solving for rho, Initial residual = 0.00995284, Final residual = 1.2326e-09, No Iterations 1
smoothSolver:  Solving for Ux, Initial residual = 0.00482816, Final residual = 9.02186e-09, No Iterations 2
smoothSolver:  Solving for Uy, Initial residual = 0.00482871, Final residual = 8.15866e-09, No Iterations 2
diagonal:  Solving for p, Initial residual = 0, Final residual = 0, No Iterations 0
ExecutionTime = 7.75 s

Time = 2.525
dt = 0.025
Base-Flow Courant Number mean: 0.0049875 max: 0.0049875
Perturbation Courant Number mean: 0 max: 0
GAMG:  Solving for rho, Initial residual = 0.00984935, Final residual = 1.21859e-09, No Iterations 1
smoothSolver:  Solving for Ux, Initial residual = 0.00477713, Final residual = 8.92649e-09, No Iterations 2
smoothSolver:  Solving for Uy, Initial residual = 0.00477677, Final residual = 8.10436e-09, No Iterations 2
diagonal:  Solving for p, Initial residual = 0, Final residual = 0, No Iterations 0
ExecutionTime = 7.8 s

Time = 2.55
dt = 0.025
Base-Flow Courant Number mean: 0.0049875 max: 0.0049875
Perturbation Courant Number mean: 0 max: 0
GAMG:  Solving for rho, Initial residual = 0.00974785, Final residual = 1.20487e-09, No Iterations 1
smoothSolver:  Solving for Ux, Initial residual = 0.0047269, Final residual = 8.83248e-09, No Iterations 2
smoothSolver:  Solving for Uy, Initial residual = 0.00472582, Final residual = 8.01428e-09, No Iterations 2
diagonal:  Solving for p, Initial residual = 0, Final residual = 0, No Iterations 0
ExecutionTime = 7.84 s

Time = 2.575
dt = 0.025
Base-Flow Courant Number mean: 0.0049875 max: 0.0049875
Perturbation Courant Number mean: 0 max: 0
GAMG:  Solving for rho, Initial residual = 0.00964828, Final residual = 1.20017e-09, No Iterations 1
smoothSolver:  Solving for Ux, Initial residual = 0.00467724, Final residual = 8.73939e-09, No Iterations 2
smoothSolver:  Solving for Uy, Initial residual = 0.00467582, Final residual = 7.92594e-09, No Iterations 2
diagonal:  Solving for p, Initial residual = 0, Final residual = 0, No Iterations 0
ExecutionTime = 7.89 s

Time = 2.6
dt = 0.025
Base-Flow Courant Number mean: 0.0049875 max: 0.0049875
Perturbation Courant Number mean: 0 max: 0
GAMG:  Solving for rho, Initial residual = 0.00955063, Final residual = 1.18692e-09, No Iterations 1
smoothSolver:  Solving for Ux, Initial residual = 0.00462892, Final residual = 8.64888e-09, No Iterations 2
smoothSolver:  Solving for Uy, Initial residual = 0.00462676, Final residual = 7.87208e-09, No Iterations 2
diagonal:  Solving for p, Initial residual = 0, Final residual = 0, No Iterations 0
ExecutionTime = 7.94 s

Time = 2.625
dt = 0.025
Base-Flow Courant Number mean: 0.0049875 max: 0.0049875
Perturbation Courant Number mean: 0 max: 0
GAMG:  Solving for rho, Initial residual = 0.00945482, Final residual = 1.17394e-09, No Iterations 1
smoothSolver:  Solving for Ux, Initial residual = 0.00458236, Final residual = 8.56214e-09, No Iterations 2
smoothSolver:  Solving for Uy, Initial residual = 0.00457859, Final residual = 7.87826e-09, No Iterations 2
diagonal:  Solving for p, Initial residual = 0, Final residual = 0, No Iterations 0
ExecutionTime = 7.98 s

Time = 2.65
dt = 0.025
Base-Flow Courant Number mean: 0.0049875 max: 0.0049875
Perturbation Courant Number mean: 0 max: 0
GAMG:  Solving for rho, Initial residual = 0.0093608, Final residual = 1.16124e-09, No Iterations 1
smoothSolver:  Solving for Ux, Initial residual = 0.00453682, Final residual = 8.47736e-09, No Iterations 2
smoothSolver:  Solving for Uy, Initial residual = 0.00453131, Final residual = 7.88024e-09, No Iterations 2
diagonal:  Solving for p, Initial residual = 0, Final residual = 0, No Iterations 0
ExecutionTime = 8.02 s

Time = 2.675
dt = 0.025
Base-Flow Courant Number mean: 0.0049875 max: 0.0049875
Perturbation Courant Number mean: 0 max: 0
GAMG:  Solving for rho, Initial residual = 0.00926849, Final residual = 1.14879e-09, No Iterations 1
smoothSolver:  Solving for Ux, Initial residual = 0.0044913, Final residual = 8.39187e-09, No Iterations 2
smoothSolver:  Solving for Uy, Initial residual = 0.00448488, Final residual = 7.82501e-09, No Iterations 2
diagonal:  Solving for p, Initial residual = 0, Final residual = 0, No Iterations 0
ExecutionTime = 8.07 s

Time = 2.7
dt = 0.025
Base-Flow Courant Number mean: 0.0049875 max: 0.0049875
Perturbation Courant Number mean: 0 max: 0
GAMG:  Solving for rho, Initial residual = 0.00917785, Final residual = 1.13661e-09, No Iterations 1
smoothSolver:  Solving for Ux, Initial residual = 0.00444605, Final residual = 8.32864e-09, No Iterations 2
smoothSolver:  Solving for Uy, Initial residual = 0.00443928, Final residual = 7.76843e-09, No Iterations 2
diagonal:  Solving for p, Initial residual = 0, Final residual = 0, No Iterations 0
ExecutionTime = 8.12 s

Time = 2.725
dt = 0.025
Base-Flow Courant Number mean: 0.0049875 max: 0.0049875
Perturbation Courant Number mean: 0 max: 0
GAMG:  Solving for rho, Initial residual = 0.00908884, Final residual = 1.12932e-09, No Iterations 1
smoothSolver:  Solving for Ux, Initial residual = 0.00440147, Final residual = 8.24491e-09, No Iterations 2
smoothSolver:  Solving for Uy, Initial residual = 0.00439449, Final residual = 7.68372e-09, No Iterations 2
diagonal:  Solving for p, Initial residual = 0, Final residual = 0, No Iterations 0
ExecutionTime = 8.16 s

Time = 2.75
dt = 0.025
Base-Flow Courant Number mean: 0.0049875 max: 0.0049875
Perturbation Courant Number mean: 0 max: 0
GAMG:  Solving for rho, Initial residual = 0.0090014, Final residual = 1.11754e-09, No Iterations 1
smoothSolver:  Solving for Ux, Initial residual = 0.00435777, Final residual = 8.16336e-09, No Iterations 2
smoothSolver:  Solving for Uy, Initial residual = 0.00435048, Final residual = 7.60053e-09, No Iterations 2
diagonal:  Solving for p, Initial residual = 0, Final residual = 0, No Iterations 0
ExecutionTime = 8.21 s

Time = 2.775
dt = 0.025
Base-Flow Courant Number mean: 0.0049875 max: 0.0049875
Perturbation Courant Number mean: 0 max: 0
GAMG:  Solving for rho, Initial residual = 0.0089155, Final residual = 1.10601e-09, No Iterations 1
smoothSolver:  Solving for Ux, Initial residual = 0.00431561, Final residual = 8.08749e-09, No Iterations 2
smoothSolver:  Solving for Uy, Initial residual = 0.00430724, Final residual = 7.55679e-09, No Iterations 2
diagonal:  Solving for p, Initial residual = 0, Final residual = 0, No Iterations 0
ExecutionTime = 8.25 s

Time = 2.8
dt = 0.025
Base-Flow Courant Number mean: 0.0049875 max: 0.0049875
Perturbation Courant Number mean: 0 max: 0
GAMG:  Solving for rho, Initial residual = 0.00883111, Final residual = 1.09467e-09, No Iterations 1
smoothSolver:  Solving for Ux, Initial residual = 0.0042754, Final residual = 8.01399e-09, No Iterations 2
smoothSolver:  Solving for Uy, Initial residual = 0.00426474, Final residual = 7.49967e-09, No Iterations 2
diagonal:  Solving for p, Initial residual = 0, Final residual = 0, No Iterations 0
ExecutionTime = 8.29 s

Time = 2.825
dt = 0.025
Base-Flow Courant Number mean: 0.0049875 max: 0.0049875
Perturbation Courant Number mean: 0 max: 0
GAMG:  Solving for rho, Initial residual = 0.00874819, Final residual = 1.08352e-09, No Iterations 1
smoothSolver:  Solving for Ux, Initial residual = 0.00423426, Final residual = 7.93839e-09, No Iterations 2
smoothSolver:  Solving for Uy, Initial residual = 0.00422296, Final residual = 7.44768e-09, No Iterations 2
diagonal:  Solving for p, Initial residual = 0, Final residual = 0, No Iterations 0
ExecutionTime = 8.33 s

Time = 2.85
dt = 0.025
Base-Flow Courant Number mean: 0.0049875 max: 0.0049875
Perturbation Courant Number mean: 0 max: 0
GAMG:  Solving for rho, Initial residual = 0.00866668, Final residual = 1.07258e-09, No Iterations 1
smoothSolver:  Solving for Ux, Initial residual = 0.00419361, Final residual = 7.86281e-09, No Iterations 2
smoothSolver:  Solving for Uy, Initial residual = 0.00418188, Final residual = 7.37011e-09, No Iterations 2
diagonal:  Solving for p, Initial residual = 0, Final residual = 0, No Iterations 0
ExecutionTime = 8.37 s

Time = 2.875
dt = 0.025
Base-Flow Courant Number mean: 0.0049875 max: 0.0049875
Perturbation Courant Number mean: 0 max: 0
GAMG:  Solving for rho, Initial residual = 0.00858655, Final residual = 1.06189e-09, No Iterations 1
smoothSolver:  Solving for Ux, Initial residual = 0.00415302, Final residual = 7.78715e-09, No Iterations 2
smoothSolver:  Solving for Uy, Initial residual = 0.0041415, Final residual = 7.294e-09, No Iterations 2
diagonal:  Solving for p, Initial residual = 0, Final residual = 0, No Iterations 0
ExecutionTime = 8.41 s

Time = 2.9
dt = 0.025
Base-Flow Courant Number mean: 0.0049875 max: 0.0049875
Perturbation Courant Number mean: 0 max: 0
GAMG:  Solving for rho, Initial residual = 0.00850777, Final residual = 1.05147e-09, No Iterations 1
smoothSolver:  Solving for Ux, Initial residual = 0.00411309, Final residual = 7.71277e-09, No Iterations 2
smoothSolver:  Solving for Uy, Initial residual = 0.00410178, Final residual = 7.21933e-09, No Iterations 2
diagonal:  Solving for p, Initial residual = 0, Final residual = 0, No Iterations 0
ExecutionTime = 8.45 s

Time = 2.925
dt = 0.025
Base-Flow Courant Number mean: 0.0049875 max: 0.0049875
Perturbation Courant Number mean: 0 max: 0
GAMG:  Solving for rho, Initial residual = 0.00843033, Final residual = 1.0413e-09, No Iterations 1
smoothSolver:  Solving for Ux, Initial residual = 0.00407381, Final residual = 7.64067e-09, No Iterations 2
smoothSolver:  Solving for Uy, Initial residual = 0.00406271, Final residual = 7.17411e-09, No Iterations 2
diagonal:  Solving for p, Initial residual = 0, Final residual = 0, No Iterations 0
ExecutionTime = 8.5 s

Time = 2.95
dt = 0.025
Base-Flow Courant Number mean: 0.0049875 max: 0.0049875
Perturbation Courant Number mean: 0 max: 0
GAMG:  Solving for rho, Initial residual = 0.00835423, Final residual = 1.0311e-09, No Iterations 1
smoothSolver:  Solving for Ux, Initial residual = 0.00403557, Final residual = 7.58534e-09, No Iterations 2
smoothSolver:  Solving for Uy, Initial residual = 0.00402428, Final residual = 7.09589e-09, No Iterations 2
diagonal:  Solving for p, Initial residual = 0, Final residual = 0, No Iterations 0
ExecutionTime = 8.55 s

Time = 2.975
dt = 0.025
Base-Flow Courant Number mean: 0.0049875 max: 0.0049875
Perturbation Courant Number mean: 0 max: 0
GAMG:  Solving for rho, Initial residual = 0.00827941, Final residual = 1.02462e-09, No Iterations 1
smoothSolver:  Solving for Ux, Initial residual = 0.00399753, Final residual = 7.51485e-09, No Iterations 2
smoothSolver:  Solving for Uy, Initial residual = 0.00398646, Final residual = 7.03028e-09, No Iterations 2
diagonal:  Solving for p, Initial residual = 0, Final residual = 0, No Iterations 0
ExecutionTime = 8.65 s

Time = 3
dt = 0.025
Base-Flow Courant Number mean: 0.0049875 max: 0.0049875
Perturbation Courant Number mean: 0 max: 0
GAMG:  Solving for rho, Initial residual = 0.00820581, Final residual = 1.01525e-09, No Iterations 1
smoothSolver:  Solving for Ux, Initial residual = 0.00396009, Final residual = 7.44597e-09, No Iterations 2
smoothSolver:  Solving for Uy, Initial residual = 0.00394925, Final residual = 6.96567e-09, No Iterations 2
diagonal:  Solving for p, Initial residual = 0, Final residual = 0, No Iterations 0
ExecutionTime = 8.72 s

Time = 3.025
dt = 0.025
Base-Flow Courant Number mean: 0.0049875 max: 0.0049875
Perturbation Courant Number mean: 0 max: 0
GAMG:  Solving for rho, Initial residual = 0.00813346, Final residual = 1.00603e-09, No Iterations 1
smoothSolver:  Solving for Ux, Initial residual = 0.00392324, Final residual = 7.3782e-09, No Iterations 2
smoothSolver:  Solving for Uy, Initial residual = 0.00391263, Final residual = 6.90215e-09, No Iterations 2
diagonal:  Solving for p, Initial residual = 0, Final residual = 0, No Iterations 0
ExecutionTime = 8.79 s

Time = 3.05
dt = 0.025
Base-Flow Courant Number mean: 0.0049875 max: 0.0049875
Perturbation Courant Number mean: 0 max: 0
GAMG:  Solving for rho, Initial residual = 0.00806227, Final residual = 9.97048e-10, No Iterations 1
smoothSolver:  Solving for Ux, Initial residual = 0.00388696, Final residual = 7.3255e-09, No Iterations 2
smoothSolver:  Solving for Uy, Initial residual = 0.00387658, Final residual = 6.86529e-09, No Iterations 2
diagonal:  Solving for p, Initial residual = 0, Final residual = 0, No Iterations 0
ExecutionTime = 8.92 s

Time = 3.075
dt = 0.025
Base-Flow Courant Number mean: 0.0049875 max: 0.0049875
Perturbation Courant Number mean: 0 max: 0
GAMG:  Solving for rho, Initial residual = 0.00799221, Final residual = 9.88253e-10, No Iterations 1
smoothSolver:  Solving for Ux, Initial residual = 0.00385133, Final residual = 7.26037e-09, No Iterations 2
smoothSolver:  Solving for Uy, Initial residual = 0.00384109, Final residual = 6.80396e-09, No Iterations 2
diagonal:  Solving for p, Initial residual = 0, Final residual = 0, No Iterations 0
ExecutionTime = 9.07 s

Time = 3.1
dt = 0.025
Base-Flow Courant Number mean: 0.0049875 max: 0.0049875
Perturbation Courant Number mean: 0 max: 0
GAMG:  Solving for rho, Initial residual = 0.00792332, Final residual = 9.79615e-10, No Iterations 1
smoothSolver:  Solving for Ux, Initial residual = 0.0038165, Final residual = 7.19649e-09, No Iterations 2
smoothSolver:  Solving for Uy, Initial residual = 0.00380615, Final residual = 6.74352e-09, No Iterations 2
diagonal:  Solving for p, Initial residual = 0, Final residual = 0, No Iterations 0
ExecutionTime = 9.13 s

Time = 3.125
dt = 0.025
Base-Flow Courant Number mean: 0.0049875 max: 0.0049875
Perturbation Courant Number mean: 0 max: 0
GAMG:  Solving for rho, Initial residual = 0.00785555, Final residual = 9.71182e-10, No Iterations 1
smoothSolver:  Solving for Ux, Initial residual = 0.00378232, Final residual = 7.1339e-09, No Iterations 2
smoothSolver:  Solving for Uy, Initial residual = 0.00377174, Final residual = 6.68404e-09, No Iterations 2
diagonal:  Solving for p, Initial residual = 0, Final residual = 0, No Iterations 0
ExecutionTime = 9.21 s

Time = 3.15
dt = 0.025
Base-Flow Courant Number mean: 0.0049875 max: 0.0049875
Perturbation Courant Number mean: 0 max: 0
GAMG:  Solving for rho, Initial residual = 0.00778884, Final residual = 9.63027e-10, No Iterations 1
smoothSolver:  Solving for Ux, Initial residual = 0.00374875, Final residual = 7.07206e-09, No Iterations 2
smoothSolver:  Solving for Uy, Initial residual = 0.00373785, Final residual = 6.62515e-09, No Iterations 2
diagonal:  Solving for p, Initial residual = 0, Final residual = 0, No Iterations 0
ExecutionTime = 9.51 s

Time = 3.175
dt = 0.025
Base-Flow Courant Number mean: 0.0049875 max: 0.0049875
Perturbation Courant Number mean: 0 max: 0
GAMG:  Solving for rho, Initial residual = 0.00772318, Final residual = 9.57207e-10, No Iterations 1
smoothSolver:  Solving for Ux, Initial residual = 0.0037157, Final residual = 7.01119e-09, No Iterations 2
smoothSolver:  Solving for Uy, Initial residual = 0.00370446, Final residual = 6.56722e-09, No Iterations 2
diagonal:  Solving for p, Initial residual = 0, Final residual = 0, No Iterations 0
ExecutionTime = 9.62 s

Time = 3.2
dt = 0.025
Base-Flow Courant Number mean: 0.0049875 max: 0.0049875
Perturbation Courant Number mean: 0 max: 0
GAMG:  Solving for rho, Initial residual = 0.00765853, Final residual = 9.49626e-10, No Iterations 1
smoothSolver:  Solving for Ux, Initial residual = 0.00368317, Final residual = 6.95129e-09, No Iterations 2
smoothSolver:  Solving for Uy, Initial residual = 0.00367158, Final residual = 6.51024e-09, No Iterations 2
diagonal:  Solving for p, Initial residual = 0, Final residual = 0, No Iterations 0
ExecutionTime = 9.75 s

Time = 3.225
dt = 0.025
Base-Flow Courant Number mean: 0.0049875 max: 0.0049875
Perturbation Courant Number mean: 0 max: 0
GAMG:  Solving for rho, Initial residual = 0.00759486, Final residual = 9.42231e-10, No Iterations 1
smoothSolver:  Solving for Ux, Initial residual = 0.00365113, Final residual = 6.90567e-09, No Iterations 2
smoothSolver:  Solving for Uy, Initial residual = 0.00363918, Final residual = 6.4542e-09, No Iterations 2
diagonal:  Solving for p, Initial residual = 0, Final residual = 0, No Iterations 0
ExecutionTime = 9.8 s

Time = 3.25
dt = 0.025
Base-Flow Courant Number mean: 0.0049875 max: 0.0049875
Perturbation Courant Number mean: 0 max: 0
GAMG:  Solving for rho, Initial residual = 0.00753214, Final residual = 9.34989e-10, No Iterations 1
smoothSolver:  Solving for Ux, Initial residual = 0.00361957, Final residual = 6.84766e-09, No Iterations 2
smoothSolver:  Solving for Uy, Initial residual = 0.00360725, Final residual = 6.39908e-09, No Iterations 2
diagonal:  Solving for p, Initial residual = 0, Final residual = 0, No Iterations 0
ExecutionTime = 9.86 s

Time = 3.275
dt = 0.025
Base-Flow Courant Number mean: 0.0049875 max: 0.0049875
Perturbation Courant Number mean: 0 max: 0
GAMG:  Solving for rho, Initial residual = 0.00747042, Final residual = 9.27929e-10, No Iterations 1
smoothSolver:  Solving for Ux, Initial residual = 0.00358848, Final residual = 6.79047e-09, No Iterations 2
smoothSolver:  Solving for Uy, Initial residual = 0.00357579, Final residual = 6.34488e-09, No Iterations 2
diagonal:  Solving for p, Initial residual = 0, Final residual = 0, No Iterations 0
ExecutionTime = 9.91 s

Time = 3.3
dt = 0.025
Base-Flow Courant Number mean: 0.0049875 max: 0.0049875
Perturbation Courant Number mean: 0 max: 0
GAMG:  Solving for rho, Initial residual = 0.00740964, Final residual = 9.20962e-10, No Iterations 1
smoothSolver:  Solving for Ux, Initial residual = 0.00355785, Final residual = 6.73414e-09, No Iterations 2
smoothSolver:  Solving for Uy, Initial residual = 0.00354477, Final residual = 6.29157e-09, No Iterations 2
diagonal:  Solving for p, Initial residual = 0, Final residual = 0, No Iterations 0
ExecutionTime = 9.96 s

Time = 3.325
dt = 0.025
Base-Flow Courant Number mean: 0.0049875 max: 0.0049875
Perturbation Courant Number mean: 0 max: 0
GAMG:  Solving for rho, Initial residual = 0.00734977, Final residual = 9.1389e-10, No Iterations 1
smoothSolver:  Solving for Ux, Initial residual = 0.00352766, Final residual = 6.6784e-09, No Iterations 2
smoothSolver:  Solving for Uy, Initial residual = 0.0035142, Final residual = 6.23826e-09, No Iterations 2
diagonal:  Solving for p, Initial residual = 0, Final residual = 0, No Iterations 0
ExecutionTime = 10.01 s

Time = 3.35
dt = 0.025
Base-Flow Courant Number mean: 0.0049875 max: 0.0049875
Perturbation Courant Number mean: 0 max: 0
GAMG:  Solving for rho, Initial residual = 0.00729086, Final residual = 9.06987e-10, No Iterations 1
smoothSolver:  Solving for Ux, Initial residual = 0.0034979, Final residual = 6.62333e-09, No Iterations 2
smoothSolver:  Solving for Uy, Initial residual = 0.00348407, Final residual = 6.18532e-09, No Iterations 2
diagonal:  Solving for p, Initial residual = 0, Final residual = 0, No Iterations 0
ExecutionTime = 10.07 s

Time = 3.375
dt = 0.025
Base-Flow Courant Number mean: 0.0049875 max: 0.0049875
Perturbation Courant Number mean: 0 max: 0
GAMG:  Solving for rho, Initial residual = 0.00723281, Final residual = 9.01436e-10, No Iterations 1
smoothSolver:  Solving for Ux, Initial residual = 0.00346857, Final residual = 6.56906e-09, No Iterations 2
smoothSolver:  Solving for Uy, Initial residual = 0.00345435, Final residual = 6.13322e-09, No Iterations 2
diagonal:  Solving for p, Initial residual = 0, Final residual = 0, No Iterations 0
ExecutionTime = 10.12 s

Time = 3.4
dt = 0.025
Base-Flow Courant Number mean: 0.0049875 max: 0.0049875
Perturbation Courant Number mean: 0 max: 0
GAMG:  Solving for rho, Initial residual = 0.00717559, Final residual = 8.95181e-10, No Iterations 1
smoothSolver:  Solving for Ux, Initial residual = 0.00343963, Final residual = 6.53963e-09, No Iterations 2
smoothSolver:  Solving for Uy, Initial residual = 0.00342505, Final residual = 6.0843e-09, No Iterations 2
diagonal:  Solving for p, Initial residual = 0, Final residual = 0, No Iterations 0
ExecutionTime = 10.21 s

Time = 3.425
dt = 0.025
Base-Flow Courant Number mean: 0.0049875 max: 0.0049875
Perturbation Courant Number mean: 0 max: 0
GAMG:  Solving for rho, Initial residual = 0.00711919, Final residual = 8.89087e-10, No Iterations 1
smoothSolver:  Solving for Ux, Initial residual = 0.00341104, Final residual = 6.48678e-09, No Iterations 2
smoothSolver:  Solving for Uy, Initial residual = 0.00339615, Final residual = 6.03234e-09, No Iterations 2
diagonal:  Solving for p, Initial residual = 0, Final residual = 0, No Iterations 0
ExecutionTime = 10.31 s

Time = 3.45
dt = 0.025
Base-Flow Courant Number mean: 0.0049875 max: 0.0049875
Perturbation Courant Number mean: 0 max: 0
GAMG:  Solving for rho, Initial residual = 0.00706358, Final residual = 8.83133e-10, No Iterations 1
smoothSolver:  Solving for Ux, Initial residual = 0.00338282, Final residual = 6.43459e-09, No Iterations 2
smoothSolver:  Solving for Uy, Initial residual = 0.00336765, Final residual = 5.9811e-09, No Iterations 2
diagonal:  Solving for p, Initial residual = 0, Final residual = 0, No Iterations 0
ExecutionTime = 10.37 s

Time = 3.475
dt = 0.025
Base-Flow Courant Number mean: 0.0049875 max: 0.0049875
Perturbation Courant Number mean: 0 max: 0
GAMG:  Solving for rho, Initial residual = 0.00700875, Final residual = 8.77126e-10, No Iterations 1
smoothSolver:  Solving for Ux, Initial residual = 0.00335498, Final residual = 6.38303e-09, No Iterations 2
smoothSolver:  Solving for Uy, Initial residual = 0.00333954, Final residual = 5.93056e-09, No Iterations 2
diagonal:  Solving for p, Initial residual = 0, Final residual = 0, No Iterations 0
ExecutionTime = 10.43 s

Time = 3.5
dt = 0.025
Base-Flow Courant Number mean: 0.0049875 max: 0.0049875
Perturbation Courant Number mean: 0 max: 0
GAMG:  Solving for rho, Initial residual = 0.00695468, Final residual = 8.71026e-10, No Iterations 1
smoothSolver:  Solving for Ux, Initial residual = 0.00332752, Final residual = 6.33219e-09, No Iterations 2
smoothSolver:  Solving for Uy, Initial residual = 0.0033118, Final residual = 5.88072e-09, No Iterations 2
diagonal:  Solving for p, Initial residual = 0, Final residual = 0, No Iterations 0
ExecutionTime = 10.49 s

Time = 3.525
dt = 0.025
Base-Flow Courant Number mean: 0.0049875 max: 0.0049875
Perturbation Courant Number mean: 0 max: 0
GAMG:  Solving for rho, Initial residual = 0.00690135, Final residual = 8.65082e-10, No Iterations 1
smoothSolver:  Solving for Ux, Initial residual = 0.00330041, Final residual = 6.28206e-09, No Iterations 2
smoothSolver:  Solving for Uy, Initial residual = 0.00328444, Final residual = 5.83157e-09, No Iterations 2
diagonal:  Solving for p, Initial residual = 0, Final residual = 0, No Iterations 0
ExecutionTime = 10.55 s

Time = 3.55
dt = 0.025
Base-Flow Courant Number mean: 0.0049875 max: 0.0049875
Perturbation Courant Number mean: 0 max: 0
GAMG:  Solving for rho, Initial residual = 0.00684876, Final residual = 8.59235e-10, No Iterations 1
smoothSolver:  Solving for Ux, Initial residual = 0.00327366, Final residual = 6.23261e-09, No Iterations 2
smoothSolver:  Solving for Uy, Initial residual = 0.00325744, Final residual = 5.78308e-09, No Iterations 2
diagonal:  Solving for p, Initial residual = 0, Final residual = 0, No Iterations 0
ExecutionTime = 10.62 s

Time = 3.575
dt = 0.025
Base-Flow Courant Number mean: 0.0049875 max: 0.0049875
Perturbation Courant Number mean: 0 max: 0
GAMG:  Solving for rho, Initial residual = 0.00679688, Final residual = 8.53951e-10, No Iterations 1
smoothSolver:  Solving for Ux, Initial residual = 0.00324726, Final residual = 6.18384e-09, No Iterations 2
smoothSolver:  Solving for Uy, Initial residual = 0.00323079, Final residual = 5.73525e-09, No Iterations 2
diagonal:  Solving for p, Initial residual = 0, Final residual = 0, No Iterations 0
ExecutionTime = 10.68 s

Time = 3.6
dt = 0.025
Base-Flow Courant Number mean: 0.0049875 max: 0.0049875
Perturbation Courant Number mean: 0 max: 0
[...]
smoothSolver:  Solving for Uy, Initial residual = 0.0013482, Final residual = 2.46224e-09, No Iterations 2
diagonal:  Solving for p, Initial residual = 0, Final residual = 0, No Iterations 0
ExecutionTime = 23.1 s

Time = 9.125
dt = 0.025
Base-Flow Courant Number mean: 0.0049875 max: 0.0049875
Perturbation Courant Number mean: 0 max: 0
GAMG:  Solving for rho, Initial residual = 0.0022737, Final residual = 2.44486e-10, No Iterations 1
smoothSolver:  Solving for Ux, Initial residual = 0.00137815, Final residual = 2.67584e-09, No Iterations 2
smoothSolver:  Solving for Uy, Initial residual = 0.00134959, Final residual = 2.46287e-09, No Iterations 2
diagonal:  Solving for p, Initial residual = 0, Final residual = 0, No Iterations 0
ExecutionTime = 23.15 s

Time = 9.15
dt = 0.025
Base-Flow Courant Number mean: 0.0049875 max: 0.0049875
Perturbation Courant Number mean: 0 max: 0
GAMG:  Solving for rho, Initial residual = 0.00226604, Final residual = 2.43216e-10, No Iterations 1
smoothSolver:  Solving for Ux, Initial residual = 0.00137933, Final residual = 2.67712e-09, No Iterations 2
smoothSolver:  Solving for Uy, Initial residual = 0.00135101, Final residual = 2.4637e-09, No Iterations 2
diagonal:  Solving for p, Initial residual = 0, Final residual = 0, No Iterations 0
ExecutionTime = 23.2 s

Time = 9.175
dt = 0.025
Base-Flow Courant Number mean: 0.0049875 max: 0.0049875
Perturbation Courant Number mean: 0 max: 0
GAMG:  Solving for rho, Initial residual = 0.00225842, Final residual = 2.42036e-10, No Iterations 1
smoothSolver:  Solving for Ux, Initial residual = 0.00138059, Final residual = 2.67838e-09, No Iterations 2
smoothSolver:  Solving for Uy, Initial residual = 0.00135244, Final residual = 2.46448e-09, No Iterations 2
diagonal:  Solving for p, Initial residual = 0, Final residual = 0, No Iterations 0
ExecutionTime = 23.25 s

Time = 9.2
dt = 0.025
Base-Flow Courant Number mean: 0.0049875 max: 0.0049875
Perturbation Courant Number mean: 0 max: 0
GAMG:  Solving for rho, Initial residual = 0.00225085, Final residual = 2.41093e-10, No Iterations 1
smoothSolver:  Solving for Ux, Initial residual = 0.00138185, Final residual = 2.68214e-09, No Iterations 2
smoothSolver:  Solving for Uy, Initial residual = 0.00135383, Final residual = 2.46311e-09, No Iterations 2
diagonal:  Solving for p, Initial residual = 0, Final residual = 0, No Iterations 0
ExecutionTime = 23.31 s

Time = 9.225
dt = 0.025
Base-Flow Courant Number mean: 0.0049875 max: 0.0049875
Perturbation Courant Number mean: 0 max: 0
GAMG:  Solving for rho, Initial residual = 0.00224329, Final residual = 2.39965e-10, No Iterations 1
smoothSolver:  Solving for Ux, Initial residual = 0.00138308, Final residual = 2.68353e-09, No Iterations 2
smoothSolver:  Solving for Uy, Initial residual = 0.00135519, Final residual = 2.46383e-09, No Iterations 2
diagonal:  Solving for p, Initial residual = 0, Final residual = 0, No Iterations 0
ExecutionTime = 23.36 s

Time = 9.25
dt = 0.025
Base-Flow Courant Number mean: 0.0049875 max: 0.0049875
Perturbation Courant Number mean: 0 max: 0
GAMG:  Solving for rho, Initial residual = 0.00223575, Final residual = 2.3887e-10, No Iterations 1
smoothSolver:  Solving for Ux, Initial residual = 0.00138417, Final residual = 2.68496e-09, No Iterations 2
smoothSolver:  Solving for Uy, Initial residual = 0.00135652, Final residual = 2.46984e-09, No Iterations 2
diagonal:  Solving for p, Initial residual = 0, Final residual = 0, No Iterations 0
ExecutionTime = 23.4 s

Time = 9.275
dt = 0.025
Base-Flow Courant Number mean: 0.0049875 max: 0.0049875
Perturbation Courant Number mean: 0 max: 0
GAMG:  Solving for rho, Initial residual = 0.00222828, Final residual = 2.37775e-10, No Iterations 1
smoothSolver:  Solving for Ux, Initial residual = 0.00138548, Final residual = 2.68875e-09, No Iterations 2
smoothSolver:  Solving for Uy, Initial residual = 0.00135793, Final residual = 2.47616e-09, No Iterations 2
diagonal:  Solving for p, Initial residual = 0, Final residual = 0, No Iterations 0
ExecutionTime = 23.45 s

Time = 9.3
dt = 0.025
Base-Flow Courant Number mean: 0.0049875 max: 0.0049875
Perturbation Courant Number mean: 0 max: 0
GAMG:  Solving for rho, Initial residual = 0.00222089, Final residual = 2.36638e-10, No Iterations 1
smoothSolver:  Solving for Ux, Initial residual = 0.0013868, Final residual = 2.69001e-09, No Iterations 2
smoothSolver:  Solving for Uy, Initial residual = 0.00135933, Final residual = 2.47774e-09, No Iterations 2
diagonal:  Solving for p, Initial residual = 0, Final residual = 0, No Iterations 0
ExecutionTime = 23.5 s

Time = 9.325
dt = 0.025
Base-Flow Courant Number mean: 0.0049875 max: 0.0049875
Perturbation Courant Number mean: 0 max: 0
GAMG:  Solving for rho, Initial residual = 0.00221355, Final residual = 2.3583e-10, No Iterations 1
smoothSolver:  Solving for Ux, Initial residual = 0.00138811, Final residual = 2.69119e-09, No Iterations 2
smoothSolver:  Solving for Uy, Initial residual = 0.00136074, Final residual = 2.47925e-09, No Iterations 2
diagonal:  Solving for p, Initial residual = 0, Final residual = 0, No Iterations 0
ExecutionTime = 23.56 s

Time = 9.35
dt = 0.025
Base-Flow Courant Number mean: 0.0049875 max: 0.0049875
Perturbation Courant Number mean: 0 max: 0
GAMG:  Solving for rho, Initial residual = 0.00220624, Final residual = 2.34778e-10, No Iterations 1
smoothSolver:  Solving for Ux, Initial residual = 0.00138948, Final residual = 2.69246e-09, No Iterations 2
smoothSolver:  Solving for Uy, Initial residual = 0.00136221, Final residual = 2.48068e-09, No Iterations 2
diagonal:  Solving for p, Initial residual = 0, Final residual = 0, No Iterations 0
ExecutionTime = 23.59 s

Time = 9.375
dt = 0.025
Base-Flow Courant Number mean: 0.0049875 max: 0.0049875
Perturbation Courant Number mean: 0 max: 0
GAMG:  Solving for rho, Initial residual = 0.00219898, Final residual = 2.33662e-10, No Iterations 1
smoothSolver:  Solving for Ux, Initial residual = 0.00139085, Final residual = 2.69785e-09, No Iterations 2
smoothSolver:  Solving for Uy, Initial residual = 0.00136375, Final residual = 2.48309e-09, No Iterations 2
diagonal:  Solving for p, Initial residual = 0, Final residual = 0, No Iterations 0
ExecutionTime = 23.64 s

Time = 9.4
dt = 0.025
Base-Flow Courant Number mean: 0.0049875 max: 0.0049875
Perturbation Courant Number mean: 0 max: 0
GAMG:  Solving for rho, Initial residual = 0.00219181, Final residual = 2.32547e-10, No Iterations 1
smoothSolver:  Solving for Ux, Initial residual = 0.00139218, Final residual = 2.6967e-09, No Iterations 2
smoothSolver:  Solving for Uy, Initial residual = 0.00136531, Final residual = 2.4798e-09, No Iterations 2
diagonal:  Solving for p, Initial residual = 0, Final residual = 0, No Iterations 0
ExecutionTime = 23.7 s

Time = 9.425
dt = 0.025
Base-Flow Courant Number mean: 0.0049875 max: 0.0049875
Perturbation Courant Number mean: 0 max: 0
GAMG:  Solving for rho, Initial residual = 0.00218472, Final residual = 2.31979e-10, No Iterations 1
smoothSolver:  Solving for Ux, Initial residual = 0.00139353, Final residual = 2.69522e-09, No Iterations 2
smoothSolver:  Solving for Uy, Initial residual = 0.00136688, Final residual = 2.47914e-09, No Iterations 2
diagonal:  Solving for p, Initial residual = 0, Final residual = 0, No Iterations 0
ExecutionTime = 23.74 s

Time = 9.45
dt = 0.025
Base-Flow Courant Number mean: 0.0049875 max: 0.0049875
Perturbation Courant Number mean: 0 max: 0
GAMG:  Solving for rho, Initial residual = 0.00217768, Final residual = 2.30823e-10, No Iterations 1
smoothSolver:  Solving for Ux, Initial residual = 0.00139484, Final residual = 2.69663e-09, No Iterations 2
smoothSolver:  Solving for Uy, Initial residual = 0.00136844, Final residual = 2.4806e-09, No Iterations 2
diagonal:  Solving for p, Initial residual = 0, Final residual = 0, No Iterations 0
ExecutionTime = 23.79 s

Time = 9.475
dt = 0.025
Base-Flow Courant Number mean: 0.0049875 max: 0.0049875
Perturbation Courant Number mean: 0 max: 0
GAMG:  Solving for rho, Initial residual = 0.00217069, Final residual = 2.29681e-10, No Iterations 1
smoothSolver:  Solving for Ux, Initial residual = 0.00139614, Final residual = 2.69669e-09, No Iterations 2
smoothSolver:  Solving for Uy, Initial residual = 0.00137003, Final residual = 2.48002e-09, No Iterations 2
diagonal:  Solving for p, Initial residual = 0, Final residual = 0, No Iterations 0
ExecutionTime = 23.84 s

Time = 9.5
dt = 0.025
Base-Flow Courant Number mean: 0.0049875 max: 0.0049875
Perturbation Courant Number mean: 0 max: 0
GAMG:  Solving for rho, Initial residual = 0.00216373, Final residual = 2.28899e-10, No Iterations 1
smoothSolver:  Solving for Ux, Initial residual = 0.00139747, Final residual = 2.69809e-09, No Iterations 2
smoothSolver:  Solving for Uy, Initial residual = 0.00137159, Final residual = 2.48167e-09, No Iterations 2
diagonal:  Solving for p, Initial residual = 0, Final residual = 0, No Iterations 0
ExecutionTime = 23.9 s

Time = 9.525
dt = 0.025
Base-Flow Courant Number mean: 0.0049875 max: 0.0049875
Perturbation Courant Number mean: 0 max: 0
GAMG:  Solving for rho, Initial residual = 0.00215681, Final residual = 2.27773e-10, No Iterations 1
smoothSolver:  Solving for Ux, Initial residual = 0.00139879, Final residual = 2.70166e-09, No Iterations 2
smoothSolver:  Solving for Uy, Initial residual = 0.00137316, Final residual = 2.48466e-09, No Iterations 2
diagonal:  Solving for p, Initial residual = 0, Final residual = 0, No Iterations 0
ExecutionTime = 23.95 s

Time = 9.55
dt = 0.025
Base-Flow Courant Number mean: 0.0049875 max: 0.0049875
Perturbation Courant Number mean: 0 max: 0
GAMG:  Solving for rho, Initial residual = 0.00214996, Final residual = 2.26674e-10, No Iterations 1
smoothSolver:  Solving for Ux, Initial residual = 0.00140012, Final residual = 2.70521e-09, No Iterations 2
smoothSolver:  Solving for Uy, Initial residual = 0.00137472, Final residual = 2.4911e-09, No Iterations 2
diagonal:  Solving for p, Initial residual = 0, Final residual = 0, No Iterations 0
ExecutionTime = 24.01 s

Time = 9.575
dt = 0.025
Base-Flow Courant Number mean: 0.0049875 max: 0.0049875
Perturbation Courant Number mean: 0 max: 0
GAMG:  Solving for rho, Initial residual = 0.00214317, Final residual = 2.24791e-10, No Iterations 1
smoothSolver:  Solving for Ux, Initial residual = 0.00140153, Final residual = 2.70663e-09, No Iterations 2
smoothSolver:  Solving for Uy, Initial residual = 0.0013763, Final residual = 2.49267e-09, No Iterations 2
diagonal:  Solving for p, Initial residual = 0, Final residual = 0, No Iterations 0
ExecutionTime = 24.06 s

Time = 9.6
dt = 0.025
Base-Flow Courant Number mean: 0.0049875 max: 0.0049875
Perturbation Courant Number mean: 0 max: 0
GAMG:  Solving for rho, Initial residual = 0.00213642, Final residual = 2.23685e-10, No Iterations 1
smoothSolver:  Solving for Ux, Initial residual = 0.00140291, Final residual = 2.7101e-09, No Iterations 2
smoothSolver:  Solving for Uy, Initial residual = 0.0013779, Final residual = 2.49466e-09, No Iterations 2
diagonal:  Solving for p, Initial residual = 0, Final residual = 0, No Iterations 0
ExecutionTime = 24.12 s

Time = 9.625
dt = 0.025
Base-Flow Courant Number mean: 0.0049875 max: 0.0049875
Perturbation Courant Number mean: 0 max: 0
GAMG:  Solving for rho, Initial residual = 0.00212971, Final residual = 2.22849e-10, No Iterations 1
smoothSolver:  Solving for Ux, Initial residual = 0.00140432, Final residual = 2.71145e-09, No Iterations 2
smoothSolver:  Solving for Uy, Initial residual = 0.00137954, Final residual = 2.49623e-09, No Iterations 2
diagonal:  Solving for p, Initial residual = 0, Final residual = 0, No Iterations 0
ExecutionTime = 24.17 s

Time = 9.65
dt = 0.025
Base-Flow Courant Number mean: 0.0049875 max: 0.0049875
Perturbation Courant Number mean: 0 max: 0
GAMG:  Solving for rho, Initial residual = 0.00212304, Final residual = 2.21762e-10, No Iterations 1
smoothSolver:  Solving for Ux, Initial residual = 0.00140572, Final residual = 2.71268e-09, No Iterations 2
smoothSolver:  Solving for Uy, Initial residual = 0.00138124, Final residual = 2.49721e-09, No Iterations 2
diagonal:  Solving for p, Initial residual = 0, Final residual = 0, No Iterations 0
ExecutionTime = 24.22 s

Time = 9.675
dt = 0.025
Base-Flow Courant Number mean: 0.0049875 max: 0.0049875
Perturbation Courant Number mean: 0 max: 0
GAMG:  Solving for rho, Initial residual = 0.00211642, Final residual = 2.21392e-10, No Iterations 1
smoothSolver:  Solving for Ux, Initial residual = 0.00140712, Final residual = 2.71381e-09, No Iterations 2
smoothSolver:  Solving for Uy, Initial residual = 0.00138295, Final residual = 2.49807e-09, No Iterations 2
diagonal:  Solving for p, Initial residual = 0, Final residual = 0, No Iterations 0
ExecutionTime = 24.27 s

Time = 9.7
dt = 0.025
Base-Flow Courant Number mean: 0.0049875 max: 0.0049875
Perturbation Courant Number mean: 0 max: 0
GAMG:  Solving for rho, Initial residual = 0.00210984, Final residual = 2.20321e-10, No Iterations 1
smoothSolver:  Solving for Ux, Initial residual = 0.00140854, Final residual = 2.71161e-09, No Iterations 2
smoothSolver:  Solving for Uy, Initial residual = 0.00138466, Final residual = 2.49709e-09, No Iterations 2
diagonal:  Solving for p, Initial residual = 0, Final residual = 0, No Iterations 0
ExecutionTime = 24.32 s

Time = 9.725
dt = 0.025
Base-Flow Courant Number mean: 0.0049875 max: 0.0049875
Perturbation Courant Number mean: 0 max: 0
GAMG:  Solving for rho, Initial residual = 0.0021033, Final residual = 2.19271e-10, No Iterations 1
smoothSolver:  Solving for Ux, Initial residual = 0.00141003, Final residual = 2.71281e-09, No Iterations 2
smoothSolver:  Solving for Uy, Initial residual = 0.0013864, Final residual = 2.49787e-09, No Iterations 2
diagonal:  Solving for p, Initial residual = 0, Final residual = 0, No Iterations 0
ExecutionTime = 24.37 s

Time = 9.75
dt = 0.025
Base-Flow Courant Number mean: 0.0049875 max: 0.0049875
Perturbation Courant Number mean: 0 max: 0
GAMG:  Solving for rho, Initial residual = 0.00209677, Final residual = 2.18291e-10, No Iterations 1
smoothSolver:  Solving for Ux, Initial residual = 0.00141155, Final residual = 2.71442e-09, No Iterations 2
smoothSolver:  Solving for Uy, Initial residual = 0.00138813, Final residual = 2.49954e-09, No Iterations 2
diagonal:  Solving for p, Initial residual = 0, Final residual = 0, No Iterations 0
ExecutionTime = 24.42 s

Time = 9.775
dt = 0.025
Base-Flow Courant Number mean: 0.0049875 max: 0.0049875
Perturbation Courant Number mean: 0 max: 0
GAMG:  Solving for rho, Initial residual = 0.0020903, Final residual = 2.17284e-10, No Iterations 1
smoothSolver:  Solving for Ux, Initial residual = 0.00141308, Final residual = 2.71563e-09, No Iterations 2
smoothSolver:  Solving for Uy, Initial residual = 0.00138984, Final residual = 2.50028e-09, No Iterations 2
diagonal:  Solving for p, Initial residual = 0, Final residual = 0, No Iterations 0
ExecutionTime = 24.47 s

Time = 9.8
dt = 0.025
Base-Flow Courant Number mean: 0.0049875 max: 0.0049875
Perturbation Courant Number mean: 0 max: 0
GAMG:  Solving for rho, Initial residual = 0.00208393, Final residual = 2.1627e-10, No Iterations 1
smoothSolver:  Solving for Ux, Initial residual = 0.00141464, Final residual = 2.71528e-09, No Iterations 2
smoothSolver:  Solving for Uy, Initial residual = 0.00139155, Final residual = 2.50529e-09, No Iterations 2
diagonal:  Solving for p, Initial residual = 0, Final residual = 0, No Iterations 0
ExecutionTime = 24.52 s

Time = 9.825
dt = 0.025
Base-Flow Courant Number mean: 0.0049875 max: 0.0049875
Perturbation Courant Number mean: 0 max: 0
GAMG:  Solving for rho, Initial residual = 0.00207758, Final residual = 2.15265e-10, No Iterations 1
smoothSolver:  Solving for Ux, Initial residual = 0.00141613, Final residual = 2.7159e-09, No Iterations 2
smoothSolver:  Solving for Uy, Initial residual = 0.00139328, Final residual = 2.50101e-09, No Iterations 2
diagonal:  Solving for p, Initial residual = 0, Final residual = 0, No Iterations 0
ExecutionTime = 24.58 s

Time = 9.85
dt = 0.025
Base-Flow Courant Number mean: 0.0049875 max: 0.0049875
Perturbation Courant Number mean: 0 max: 0
GAMG:  Solving for rho, Initial residual = 0.00207126, Final residual = 2.1429e-10, No Iterations 1
smoothSolver:  Solving for Ux, Initial residual = 0.00141772, Final residual = 2.71612e-09, No Iterations 2
smoothSolver:  Solving for Uy, Initial residual = 0.001395, Final residual = 2.5012e-09, No Iterations 2
diagonal:  Solving for p, Initial residual = 0, Final residual = 0, No Iterations 0
ExecutionTime = 24.63 s

Time = 9.875
dt = 0.025
Base-Flow Courant Number mean: 0.0049875 max: 0.0049875
Perturbation Courant Number mean: 0 max: 0
GAMG:  Solving for rho, Initial residual = 0.00206496, Final residual = 2.13553e-10, No Iterations 1
smoothSolver:  Solving for Ux, Initial residual = 0.00141933, Final residual = 2.72005e-09, No Iterations 2
smoothSolver:  Solving for Uy, Initial residual = 0.0013967, Final residual = 2.50235e-09, No Iterations 2
diagonal:  Solving for p, Initial residual = 0, Final residual = 0, No Iterations 0
ExecutionTime = 24.69 s

Time = 9.9
dt = 0.025
Base-Flow Courant Number mean: 0.0049875 max: 0.0049875
Perturbation Courant Number mean: 0 max: 0
GAMG:  Solving for rho, Initial residual = 0.00205871, Final residual = 2.12795e-10, No Iterations 1
smoothSolver:  Solving for Ux, Initial residual = 0.00142103, Final residual = 2.72642e-09, No Iterations 2
smoothSolver:  Solving for Uy, Initial residual = 0.00139835, Final residual = 2.50722e-09, No Iterations 2
diagonal:  Solving for p, Initial residual = 0, Final residual = 0, No Iterations 0
ExecutionTime = 24.75 s

Time = 9.925
dt = 0.025
Base-Flow Courant Number mean: 0.0049875 max: 0.0049875
Perturbation Courant Number mean: 0 max: 0
GAMG:  Solving for rho, Initial residual = 0.00205249, Final residual = 2.11746e-10, No Iterations 1
smoothSolver:  Solving for Ux, Initial residual = 0.00142277, Final residual = 2.72823e-09, No Iterations 2
smoothSolver:  Solving for Uy, Initial residual = 0.00140004, Final residual = 2.508e-09, No Iterations 2
diagonal:  Solving for p, Initial residual = 0, Final residual = 0, No Iterations 0
ExecutionTime = 24.8 s

Time = 9.95
dt = 0.025
Base-Flow Courant Number mean: 0.0049875 max: 0.0049875
Perturbation Courant Number mean: 0 max: 0
GAMG:  Solving for rho, Initial residual = 0.00204629, Final residual = 2.10775e-10, No Iterations 1
smoothSolver:  Solving for Ux, Initial residual = 0.00142451, Final residual = 2.72905e-09, No Iterations 2
smoothSolver:  Solving for Uy, Initial residual = 0.00140173, Final residual = 2.50794e-09, No Iterations 2
diagonal:  Solving for p, Initial residual = 0, Final residual = 0, No Iterations 0
ExecutionTime = 24.85 s

Time = 9.975
dt = 0.025
Base-Flow Courant Number mean: 0.0049875 max: 0.0049875
Perturbation Courant Number mean: 0 max: 0
GAMG:  Solving for rho, Initial residual = 0.00204017, Final residual = 2.09827e-10, No Iterations 1
smoothSolver:  Solving for Ux, Initial residual = 0.00142624, Final residual = 2.73131e-09, No Iterations 2
smoothSolver:  Solving for Uy, Initial residual = 0.0014034, Final residual = 2.50842e-09, No Iterations 2
diagonal:  Solving for p, Initial residual = 0, Final residual = 0, No Iterations 0
ExecutionTime = 24.9 s

Time = 10
dt = 0.025
Base-Flow Courant Number mean: 0.0049875 max: 0.0049875
Perturbation Courant Number mean: 0 max: 0
GAMG:  Solving for rho, Initial residual = 0.00203409, Final residual = 2.08686e-10, No Iterations 1
smoothSolver:  Solving for Ux, Initial residual = 0.00142795, Final residual = 2.73352e-09, No Iterations 2
smoothSolver:  Solving for Uy, Initial residual = 0.00140509, Final residual = 2.51303e-09, No Iterations 2
diagonal:  Solving for p, Initial residual = 0, Final residual = 0, No Iterations 0
ExecutionTime = 25.11 s
